version 2
run General-0-20190501-13:47:38-29964
attr configname General
attr datetime 20190501-13:47:38
attr experiment General
attr inifile omnetpp.ini
attr iterationvars ""
attr iterationvarsf ""
attr measurement ""
attr network RSUExampleScenario
attr processid 29964
attr repetition 0
attr replication #0
attr resultdir results
attr runnumber 0
attr seedset 0
param *.playgroundSizeX 50000m
param *.playgroundSizeY 50000m
param *.playgroundSizeZ 50m
param *.annotations.draw true
param *.obstacles.obstacles "xmldoc(\"config.xml\", \"//AnalogueModel[@type='SimpleObstacleShadowing']/obstacles\")"
param *.manager.updateInterval 1s
param *.manager.host "\"localhost\""
param *.manager.port 9999
param *.manager.autoShutdown true
param *.manager.launchConfig "xmldoc(\"test.launchd.xml\")"
param *.rsu[0].mobility.x 2000
param *.rsu[0].mobility.y 2000
param *.rsu[0].mobility.z 3
param *.rsu[*].applType "\"TraCIDemoRSU11p\""
param *.rsu[*].appl.headerLength "80 bit"
param *.rsu[*].appl.sendBeacons false
param *.rsu[*].appl.dataOnSch false
param *.rsu[*].appl.beaconInterval 1s
param *.rsu[*].appl.beaconUserPriority 7
param *.rsu[*].appl.dataUserPriority 5
param *.rsu[*].nic.phy80211p.antennaOffsetZ "0 m"
param *.connectionManager.sendDirect true
param *.connectionManager.maxInterfDist 2600m
param *.connectionManager.drawMaxIntfDist false
param *.**.nic.mac1609_4.useServiceChannel false
param *.**.nic.mac1609_4.txPower 20mW
param *.**.nic.mac1609_4.bitrate 6Mbps
param *.**.nic.phy80211p.minPowerLevel -110dBm
param *.**.nic.phy80211p.useNoiseFloor true
param *.**.nic.phy80211p.noiseFloor -98dBm
param *.**.nic.phy80211p.decider "xmldoc(\"config.xml\")"
param *.**.nic.phy80211p.analogueModels "xmldoc(\"config.xml\")"
param *.**.nic.phy80211p.usePropagationDelay true
param *.**.nic.phy80211p.antenna "xmldoc(\"antenna.xml\", \"/root/Antenna[@id='monopole']\")"
param *.node[*].nic.phy80211p.antennaOffsetY "0 m"
param *.node[*].nic.phy80211p.antennaOffsetZ "1.895 m"
param *.node[*].applType "\"MyVeinsApp\""
param *.node[*].appl.headerLength "80 bit"
param *.node[*].appl.sendBeacons false
param *.node[*].appl.dataOnSch false
param *.node[*].appl.beaconInterval 1s
param *.node[*].veinsmobility.x 0
param *.node[*].veinsmobility.y 0
param *.node[*].veinsmobility.z 0
param *.node[*].veinsmobility.setHostSpeed false
param *.node[*0].veinsmobility.accidentCount 1
param *.node[*0].veinsmobility.accidentStart 75s
param *.node[*0].veinsmobility.accidentDuration 50s

vector 0 RSUExampleScenario.node[0].veinsmobility posx ETV
vector 1 RSUExampleScenario.node[0].veinsmobility posy ETV
vector 2 RSUExampleScenario.node[1].veinsmobility posx ETV
vector 3 RSUExampleScenario.node[1].veinsmobility posy ETV
vector 4 RSUExampleScenario.node[0].veinsmobility speed ETV
vector 5 RSUExampleScenario countClusterHead:vector ETV
attr source countClusterHead
attr title "countClusterHead, vector"
vector 6 RSUExampleScenario.node[2].veinsmobility posx ETV
vector 7 RSUExampleScenario.node[2].veinsmobility posy ETV
vector 8 RSUExampleScenario.node[0].veinsmobility acceleration ETV
vector 9 RSUExampleScenario.node[0].veinsmobility co2emission ETV
vector 10 RSUExampleScenario.node[1].veinsmobility speed ETV
vector 11 RSUExampleScenario.node[3].veinsmobility posx ETV
vector 12 RSUExampleScenario.node[3].veinsmobility posy ETV
vector 13 RSUExampleScenario.node[1].veinsmobility acceleration ETV
vector 14 RSUExampleScenario.node[1].veinsmobility co2emission ETV
vector 15 RSUExampleScenario.node[2].veinsmobility speed ETV
vector 16 RSUExampleScenario.node[4].veinsmobility posx ETV
vector 17 RSUExampleScenario.node[4].veinsmobility posy ETV
vector 18 RSUExampleScenario.node[2].veinsmobility acceleration ETV
vector 19 RSUExampleScenario.node[2].veinsmobility co2emission ETV
vector 20 RSUExampleScenario.node[3].veinsmobility speed ETV
vector 21 RSUExampleScenario.node[5].veinsmobility posx ETV
vector 22 RSUExampleScenario.node[5].veinsmobility posy ETV
vector 23 RSUExampleScenario.node[3].veinsmobility acceleration ETV
vector 24 RSUExampleScenario.node[3].veinsmobility co2emission ETV
vector 25 RSUExampleScenario.node[4].veinsmobility speed ETV
vector 26 RSUExampleScenario.node[6].veinsmobility posx ETV
vector 27 RSUExampleScenario.node[6].veinsmobility posy ETV
vector 28 RSUExampleScenario.node[4].veinsmobility acceleration ETV
vector 29 RSUExampleScenario.node[4].veinsmobility co2emission ETV
vector 30 RSUExampleScenario.node[5].veinsmobility speed ETV
vector 31 RSUExampleScenario.node[7].veinsmobility posx ETV
vector 32 RSUExampleScenario.node[7].veinsmobility posy ETV
vector 33 RSUExampleScenario.node[5].veinsmobility acceleration ETV
vector 34 RSUExampleScenario.node[5].veinsmobility co2emission ETV
vector 35 RSUExampleScenario.node[6].veinsmobility speed ETV
vector 36 RSUExampleScenario.node[8].veinsmobility posx ETV
vector 37 RSUExampleScenario.node[8].veinsmobility posy ETV
vector 38 RSUExampleScenario.node[6].veinsmobility acceleration ETV
vector 39 RSUExampleScenario.node[6].veinsmobility co2emission ETV
vector 40 RSUExampleScenario.node[7].veinsmobility speed ETV
vector 41 RSUExampleScenario.node[9].veinsmobility posx ETV
vector 42 RSUExampleScenario.node[9].veinsmobility posy ETV
vector 43 RSUExampleScenario.node[7].veinsmobility acceleration ETV
vector 44 RSUExampleScenario.node[7].veinsmobility co2emission ETV
vector 45 RSUExampleScenario.node[8].veinsmobility speed ETV
vector 46 RSUExampleScenario.node[10].veinsmobility posx ETV
vector 47 RSUExampleScenario.node[10].veinsmobility posy ETV
vector 48 RSUExampleScenario.node[8].veinsmobility acceleration ETV
vector 49 RSUExampleScenario.node[8].veinsmobility co2emission ETV
vector 50 RSUExampleScenario.node[9].veinsmobility speed ETV
vector 51 RSUExampleScenario.node[11].veinsmobility posx ETV
vector 52 RSUExampleScenario.node[11].veinsmobility posy ETV
vector 53 RSUExampleScenario.node[9].veinsmobility acceleration ETV
vector 54 RSUExampleScenario.node[9].veinsmobility co2emission ETV
vector 55 RSUExampleScenario.node[10].veinsmobility speed ETV
vector 56 RSUExampleScenario.node[12].veinsmobility posx ETV
vector 57 RSUExampleScenario.node[12].veinsmobility posy ETV
vector 58 RSUExampleScenario.node[10].veinsmobility acceleration ETV
vector 59 RSUExampleScenario.node[10].veinsmobility co2emission ETV
vector 60 RSUExampleScenario.node[11].veinsmobility speed ETV
vector 61 RSUExampleScenario.node[13].veinsmobility posx ETV
vector 62 RSUExampleScenario.node[13].veinsmobility posy ETV
vector 63 RSUExampleScenario.node[11].veinsmobility acceleration ETV
vector 64 RSUExampleScenario.node[11].veinsmobility co2emission ETV
vector 65 RSUExampleScenario.node[12].veinsmobility speed ETV
vector 66 RSUExampleScenario.node[14].veinsmobility posx ETV
vector 67 RSUExampleScenario.node[14].veinsmobility posy ETV
vector 68 RSUExampleScenario.node[12].veinsmobility acceleration ETV
vector 69 RSUExampleScenario.node[12].veinsmobility co2emission ETV
vector 70 RSUExampleScenario.node[13].veinsmobility speed ETV
vector 71 RSUExampleScenario.node[15].veinsmobility posx ETV
vector 72 RSUExampleScenario.node[15].veinsmobility posy ETV
vector 73 RSUExampleScenario.node[13].veinsmobility acceleration ETV
vector 74 RSUExampleScenario.node[13].veinsmobility co2emission ETV
vector 75 RSUExampleScenario.node[14].veinsmobility speed ETV
vector 76 RSUExampleScenario.node[14].veinsmobility acceleration ETV
vector 77 RSUExampleScenario.node[14].veinsmobility co2emission ETV
vector 78 RSUExampleScenario.node[15].veinsmobility speed ETV
vector 79 RSUExampleScenario.node[16].veinsmobility posx ETV
vector 80 RSUExampleScenario.node[16].veinsmobility posy ETV
vector 81 RSUExampleScenario.node[17].veinsmobility posx ETV
vector 82 RSUExampleScenario.node[17].veinsmobility posy ETV
vector 83 RSUExampleScenario.node[15].veinsmobility acceleration ETV
vector 84 RSUExampleScenario.node[15].veinsmobility co2emission ETV
vector 85 RSUExampleScenario.node[18].veinsmobility posx ETV
vector 86 RSUExampleScenario.node[18].veinsmobility posy ETV
vector 87 RSUExampleScenario.node[16].veinsmobility speed ETV
vector 88 RSUExampleScenario.node[17].veinsmobility speed ETV
vector 89 RSUExampleScenario.node[19].veinsmobility posx ETV
vector 90 RSUExampleScenario.node[19].veinsmobility posy ETV
vector 91 RSUExampleScenario.node[16].veinsmobility acceleration ETV
vector 92 RSUExampleScenario.node[16].veinsmobility co2emission ETV
vector 93 RSUExampleScenario.node[17].veinsmobility acceleration ETV
vector 94 RSUExampleScenario.node[17].veinsmobility co2emission ETV
vector 95 RSUExampleScenario.node[18].veinsmobility speed ETV
34	733	8	3.1341220888439
34	1020	9	5.2997447828868
34	1338	10	4.462424951975
34	1734	11	5.727049759261
34	2204	12	0.973
34	2769	13	2.1859453854384
34	3421	14	2.2050241502922
34	4108	15	6.0654429267809
34	4895	16	6.3261149845341
34	5790	17	9.7016321926793
34	6682	18	0.973
34	7819	19	4.8675361264431
34	9040	20	0.973
33	733	8	2.0893797688885
33	1020	9	2.5737160811434
33	1338	10	1.5610938670114
33	1734	11	1.7681026779115
33	2204	12	-3.3810434827954
33	2769	13	0.45555795982946
33	3421	14	0.42414256501943
33	4108	15	2.0298180325888
33	4895	16	1.7509591813199
33	5790	17	2.4203621656401
33	6682	18	-0.64224357788917
33	7819	19	0.88441504570655
33	9040	20	-0.2952402097173
30	508	7	1.5707574565429
30	733	8	3.6601372254314
30	1020	9	6.2338533065747
30	1338	10	7.7949471735861
30	1734	11	9.5630498514976
30	2204	12	6.1820063687023
30	2769	13	6.6375643285317
30	3421	14	7.0617068935512
30	4108	15	9.09152492614
30	4895	16	10.84248410746
30	5790	17	13.2628462731
30	6682	18	12.620602695211
30	7819	19	13.505017740917
30	9040	20	13.2097775312
22	325	6	5363.0329623699
22	508	7	5363.0329623699
22	733	8	5363.7422555688
22	1020	9	5365.3950317059
22	1338	10	5368.2136750094
22	1734	11	5371.7406046119
22	2204	12	5376.0641569974
22	2769	13	5379.0866187486
22	3421	14	5384.9225093664
22	4108	15	5391.6016446025
22	4895	16	5400.1192895201
22	5790	17	5410.2773686545
22	6682	18	5422.7030305835
22	7819	19	5434.5269889708
22	9040	20	5447.1795358931
21	325	6	5495.3487590072
21	508	7	5495.3487590072
21	733	8	5496.7497388363
21	1020	9	5500.0142647524
21	1338	10	5505.5736232931
21	1734	11	5512.5247038746
21	2204	12	5521.0578772677
21	2769	13	5526.4378805269
21	3421	14	5528.5122562403
21	4108	15	5526.2539028145
21	4895	16	5523.0757422349
21	5790	17	5519.2854918803
21	6682	18	5514.6491458832
21	7819	19	5510.2373115317
21	9040	20	5505.5163086901
vector 96 RSUExampleScenario.node[20].veinsmobility posx ETV
vector 97 RSUExampleScenario.node[20].veinsmobility posy ETV
vector 98 RSUExampleScenario.node[18].veinsmobility acceleration ETV
vector 99 RSUExampleScenario.node[18].veinsmobility co2emission ETV
vector 100 RSUExampleScenario.node[19].veinsmobility speed ETV
vector 101 RSUExampleScenario.node[21].veinsmobility posx ETV
vector 102 RSUExampleScenario.node[21].veinsmobility posy ETV
vector 103 RSUExampleScenario.node[19].veinsmobility acceleration ETV
vector 104 RSUExampleScenario.node[19].veinsmobility co2emission ETV
vector 105 RSUExampleScenario.node[20].veinsmobility speed ETV
vector 106 RSUExampleScenario.node[22].veinsmobility posx ETV
vector 107 RSUExampleScenario.node[22].veinsmobility posy ETV
vector 108 RSUExampleScenario.node[20].veinsmobility acceleration ETV
vector 109 RSUExampleScenario.node[20].veinsmobility co2emission ETV
vector 110 RSUExampleScenario.node[21].veinsmobility speed ETV
vector 111 RSUExampleScenario.node[23].veinsmobility posx ETV
vector 112 RSUExampleScenario.node[23].veinsmobility posy ETV
vector 113 RSUExampleScenario.node[21].veinsmobility acceleration ETV
vector 114 RSUExampleScenario.node[21].veinsmobility co2emission ETV
vector 115 RSUExampleScenario.node[22].veinsmobility speed ETV
vector 116 RSUExampleScenario.node[24].veinsmobility posx ETV
vector 117 RSUExampleScenario.node[24].veinsmobility posy ETV
vector 118 RSUExampleScenario.node[22].veinsmobility acceleration ETV
vector 119 RSUExampleScenario.node[22].veinsmobility co2emission ETV
vector 120 RSUExampleScenario.node[23].veinsmobility speed ETV
vector 121 RSUExampleScenario.node[25].veinsmobility posx ETV
vector 122 RSUExampleScenario.node[25].veinsmobility posy ETV
vector 123 RSUExampleScenario.node[23].veinsmobility acceleration ETV
vector 124 RSUExampleScenario.node[23].veinsmobility co2emission ETV
vector 125 RSUExampleScenario.node[24].veinsmobility speed ETV
vector 126 RSUExampleScenario.node[26].veinsmobility posx ETV
vector 127 RSUExampleScenario.node[26].veinsmobility posy ETV
vector 128 RSUExampleScenario.node[24].veinsmobility acceleration ETV
vector 129 RSUExampleScenario.node[24].veinsmobility co2emission ETV
vector 130 RSUExampleScenario.node[25].veinsmobility speed ETV
vector 131 RSUExampleScenario.node[25].veinsmobility acceleration ETV
vector 132 RSUExampleScenario.node[25].veinsmobility co2emission ETV
vector 133 RSUExampleScenario.node[26].veinsmobility speed ETV
vector 134 RSUExampleScenario.node[27].veinsmobility posx ETV
vector 135 RSUExampleScenario.node[27].veinsmobility posy ETV
vector 136 RSUExampleScenario.node[26].veinsmobility acceleration ETV
vector 137 RSUExampleScenario.node[26].veinsmobility co2emission ETV
vector 138 RSUExampleScenario.node[28].veinsmobility posx ETV
vector 139 RSUExampleScenario.node[28].veinsmobility posy ETV
vector 140 RSUExampleScenario.node[27].veinsmobility speed ETV
vector 141 RSUExampleScenario.node[29].veinsmobility posx ETV
vector 142 RSUExampleScenario.node[29].veinsmobility posy ETV
vector 143 RSUExampleScenario.node[27].veinsmobility acceleration ETV
vector 144 RSUExampleScenario.node[27].veinsmobility co2emission ETV
vector 145 RSUExampleScenario.node[28].veinsmobility speed ETV
vector 146 RSUExampleScenario.node[30].veinsmobility posx ETV
vector 147 RSUExampleScenario.node[30].veinsmobility posy ETV
vector 148 RSUExampleScenario.node[28].veinsmobility acceleration ETV
vector 149 RSUExampleScenario.node[28].veinsmobility co2emission ETV
vector 150 RSUExampleScenario.node[29].veinsmobility speed ETV
vector 151 RSUExampleScenario.node[31].veinsmobility posx ETV
vector 152 RSUExampleScenario.node[31].veinsmobility posy ETV
vector 153 RSUExampleScenario.node[29].veinsmobility acceleration ETV
vector 154 RSUExampleScenario.node[29].veinsmobility co2emission ETV
vector 155 RSUExampleScenario.node[30].veinsmobility speed ETV
vector 156 RSUExampleScenario.node[32].veinsmobility posx ETV
vector 157 RSUExampleScenario.node[32].veinsmobility posy ETV
vector 158 RSUExampleScenario.node[30].veinsmobility acceleration ETV
vector 159 RSUExampleScenario.node[30].veinsmobility co2emission ETV
vector 160 RSUExampleScenario.node[31].veinsmobility speed ETV
vector 161 RSUExampleScenario.node[33].veinsmobility posx ETV
vector 162 RSUExampleScenario.node[33].veinsmobility posy ETV
vector 163 RSUExampleScenario.node[31].veinsmobility acceleration ETV
vector 164 RSUExampleScenario.node[31].veinsmobility co2emission ETV
vector 165 RSUExampleScenario.node[32].veinsmobility speed ETV
vector 166 RSUExampleScenario.node[34].veinsmobility posx ETV
vector 167 RSUExampleScenario.node[34].veinsmobility posy ETV
vector 168 RSUExampleScenario.node[32].veinsmobility acceleration ETV
vector 169 RSUExampleScenario.node[32].veinsmobility co2emission ETV
vector 170 RSUExampleScenario.node[33].veinsmobility speed ETV
vector 171 RSUExampleScenario.node[35].veinsmobility posx ETV
vector 172 RSUExampleScenario.node[35].veinsmobility posy ETV
vector 173 RSUExampleScenario.node[33].veinsmobility acceleration ETV
vector 174 RSUExampleScenario.node[33].veinsmobility co2emission ETV
vector 175 RSUExampleScenario.node[34].veinsmobility speed ETV
54	2204	12	3.2620279608481
54	2769	13	4.9189631857948
54	3421	14	5.4969288509726
54	4108	15	5.4539793631993
54	4895	16	7.3979001196952
54	5790	17	4.9067061110021
54	6682	18	5.969659616728
54	7819	19	0.973
54	9040	20	0.973
54	10382	21	5.1924727031499
54	11679	22	0.973
54	13064	23	0.973
54	14613	24	2.4355064582945
54	16283	25	0.973
54	18115	26	1.8144336369052
54	20082	27	0.973
54	22161	28	0.973
54	24212	29	1.1102080901728
54	26435	30	1.6027613058733
54	28795	31	3.1511304334879
54	31351	32	2.951989220714
54	34117	33	4.7862058779301
54	37035	34	0.973
54	40134	35	0.973
54	43510	36	1.8001561156922
54	47052	37	3.0178328355953
53	2204	12	2.2560777051607
53	2769	13	2.4054226770764
53	3421	14	2.0318584615365
53	4108	15	1.6241080194712
53	4895	16	1.9828932433389
53	5790	17	0.98326712079346
53	6682	18	1.1834982411703
53	7819	19	-4.5
53	9040	20	-4.2175978664234
53	10382	21	2.1192494755378
53	11679	22	-0.26284968454205
53	13064	23	-1.2328624073276
53	14613	24	0.64491855581291
53	16283	25	-1.039414313063
53	18115	26	0.30446063327137
53	20082	27	-3.4433980410999
53	22161	28	-2.204578930956
53	24212	29	-0.0026126049065929
53	26435	30	1.3306742926128
53	28795	31	2.1945817133412
53	31351	32	1.3553138872143
53	34117	33	1.9979047445813
53	37035	34	-0.8188765176554
53	40134	35	-3.5505431716133
53	43510	36	0.68988721154165
53	47052	37	1.4812834770884
50	1734	11	1.3719304058002
50	2204	12	3.6280081109609
50	2769	13	6.0334307880374
50	3421	14	8.0652892495738
50	4108	15	9.689397269045
50	4895	16	11.672290512384
50	5790	17	12.655557633177
50	6682	18	13.839055874348
50	7819	19	9.3390558743477
50	9040	20	5.1214580079243
50	10382	21	7.2407074834621
50	11679	22	6.97785779892
50	13064	23	5.7449953915924
50	14613	24	6.3899139474053
50	16283	25	5.3504996343423
50	18115	26	5.6549602676136
50	20082	27	2.2115622265137
50	22161	28	0.0069832955576868
50	24212	29	0.0043706906510939
50	26435	30	1.3350449832639
50	28795	31	3.5296266966051
50	31351	32	4.8849405838194
50	34117	33	6.8828453284007
50	37035	34	6.0639688107453
50	40134	35	2.513425639132
50	43510	36	3.2033128506737
50	47052	37	4.6845963277621
42	1338	10	4597.5760106383
42	1734	11	4597.5760106383
42	2204	12	4596.6334166095
42	2769	13	4594.1407691928
42	3421	14	4589.9954599191
42	4108	15	4584.4541485996
42	4895	16	4577.7970492996
42	5790	17	4569.7936457575
42	6682	18	4561.1230822777
42	7819	19	4551.6440843724
42	9040	20	4545.2473408463
42	10382	21	4541.7394216523
42	11679	22	4536.0387627871
42	13064	23	4529.4767626941
42	14613	24	4524.9139752542
42	16283	25	4519.1049145718
42	18115	26	4515.2808984239
42	20082	27	4511.3386564851
42	22161	28	4509.7969103105
42	24212	29	4509.7920420463
42	26435	30	4509.7889951072
42	28795	31	4508.8594962396
42	31351	32	4506.4116411828
42	34117	33	4503.0238533123
42	37035	34	4498.2525504873
42	40134	35	4494.0818974172
42	43510	36	4491.7541428896
42	47052	37	4491.9711465809
41	1338	10	4843.8059397163
41	1734	11	4843.8059397163
41	2204	12	4844.8028595945
41	2769	13	4847.4391692709
41	3421	14	4851.8233909931
41	4108	15	4857.6840725134
41	4895	16	4864.7249407922
41	5790	17	4873.2117182116
41	6682	18	4882.4305636697
41	7819	19	4892.5173698173
41	9040	20	4899.3242825909
41	10382	21	4903.0571350765
41	11679	22	4907.3651345497
41	13064	23	4906.6571649143
41	14613	24	4903.1996611072
41	16283	25	4903.6540296829
41	18115	26	4907.3814174368
41	20082	27	4911.4304373263
41	22161	28	4913.0139426063
41	24212	29	4913.0189427303
41	26435	30	4913.0220721976
41	28795	31	4913.9796455526
41	31351	32	4916.5245826796
41	34117	33	4920.046730409
41	37035	34	4925.0106962746
41	40134	35	4929.4046177104
41	43510	36	4929.7856711062
41	47052	37	4926.9831793053
vector 176 RSUExampleScenario.node[36].veinsmobility posx ETV
vector 177 RSUExampleScenario.node[36].veinsmobility posy ETV
vector 178 RSUExampleScenario.node[34].veinsmobility acceleration ETV
vector 179 RSUExampleScenario.node[34].veinsmobility co2emission ETV
vector 180 RSUExampleScenario.node[35].veinsmobility speed ETV
vector 181 RSUExampleScenario.node[37].veinsmobility posx ETV
vector 182 RSUExampleScenario.node[37].veinsmobility posy ETV
vector 183 RSUExampleScenario.node[35].veinsmobility acceleration ETV
vector 184 RSUExampleScenario.node[35].veinsmobility co2emission ETV
vector 185 RSUExampleScenario.node[36].veinsmobility speed ETV
vector 186 RSUExampleScenario.node[38].veinsmobility posx ETV
vector 187 RSUExampleScenario.node[38].veinsmobility posy ETV
vector 188 RSUExampleScenario.node[36].veinsmobility acceleration ETV
vector 189 RSUExampleScenario.node[36].veinsmobility co2emission ETV
vector 190 RSUExampleScenario.node[37].veinsmobility speed ETV
vector 191 RSUExampleScenario.node[39].veinsmobility posx ETV
vector 192 RSUExampleScenario.node[39].veinsmobility posy ETV
vector 193 RSUExampleScenario.node[37].veinsmobility acceleration ETV
vector 194 RSUExampleScenario.node[37].veinsmobility co2emission ETV
vector 195 RSUExampleScenario.node[38].veinsmobility speed ETV
vector 196 RSUExampleScenario.node[40].veinsmobility posx ETV
vector 197 RSUExampleScenario.node[40].veinsmobility posy ETV
vector 198 RSUExampleScenario.node[38].veinsmobility acceleration ETV
vector 199 RSUExampleScenario.node[38].veinsmobility co2emission ETV
vector 200 RSUExampleScenario.node[39].veinsmobility speed ETV
vector 201 RSUExampleScenario.node[41].veinsmobility posx ETV
vector 202 RSUExampleScenario.node[41].veinsmobility posy ETV
vector 203 RSUExampleScenario.node[39].veinsmobility acceleration ETV
vector 204 RSUExampleScenario.node[39].veinsmobility co2emission ETV
vector 205 RSUExampleScenario.node[40].veinsmobility speed ETV
vector 206 RSUExampleScenario.node[42].veinsmobility posx ETV
vector 207 RSUExampleScenario.node[42].veinsmobility posy ETV
vector 208 RSUExampleScenario.node[40].veinsmobility acceleration ETV
vector 209 RSUExampleScenario.node[40].veinsmobility co2emission ETV
vector 210 RSUExampleScenario.node[41].veinsmobility speed ETV
vector 211 RSUExampleScenario.node[43].veinsmobility posx ETV
vector 212 RSUExampleScenario.node[43].veinsmobility posy ETV
vector 213 RSUExampleScenario.node[41].veinsmobility acceleration ETV
vector 214 RSUExampleScenario.node[41].veinsmobility co2emission ETV
vector 215 RSUExampleScenario.node[42].veinsmobility speed ETV
vector 216 RSUExampleScenario.node[44].veinsmobility posx ETV
vector 217 RSUExampleScenario.node[44].veinsmobility posy ETV
vector 218 RSUExampleScenario.node[42].veinsmobility acceleration ETV
vector 219 RSUExampleScenario.node[42].veinsmobility co2emission ETV
vector 220 RSUExampleScenario.node[43].veinsmobility speed ETV
vector 221 RSUExampleScenario.node[45].veinsmobility posx ETV
vector 222 RSUExampleScenario.node[45].veinsmobility posy ETV
vector 223 RSUExampleScenario.node[43].veinsmobility acceleration ETV
vector 224 RSUExampleScenario.node[43].veinsmobility co2emission ETV
vector 225 RSUExampleScenario.node[44].veinsmobility speed ETV
vector 226 RSUExampleScenario.node[46].veinsmobility posx ETV
vector 227 RSUExampleScenario.node[46].veinsmobility posy ETV
vector 228 RSUExampleScenario.node[44].veinsmobility acceleration ETV
vector 229 RSUExampleScenario.node[44].veinsmobility co2emission ETV
vector 230 RSUExampleScenario.node[45].veinsmobility speed ETV
vector 231 RSUExampleScenario.node[47].veinsmobility posx ETV
vector 232 RSUExampleScenario.node[47].veinsmobility posy ETV
vector 233 RSUExampleScenario.node[45].veinsmobility acceleration ETV
vector 234 RSUExampleScenario.node[45].veinsmobility co2emission ETV
vector 235 RSUExampleScenario.node[46].veinsmobility speed ETV
vector 236 RSUExampleScenario.node[48].veinsmobility posx ETV
vector 237 RSUExampleScenario.node[48].veinsmobility posy ETV
vector 238 RSUExampleScenario.node[46].veinsmobility acceleration ETV
vector 239 RSUExampleScenario.node[46].veinsmobility co2emission ETV
vector 240 RSUExampleScenario.node[47].veinsmobility speed ETV
vector 241 RSUExampleScenario.node[49].veinsmobility posx ETV
vector 242 RSUExampleScenario.node[49].veinsmobility posy ETV
vector 243 RSUExampleScenario.node[47].veinsmobility acceleration ETV
vector 244 RSUExampleScenario.node[47].veinsmobility co2emission ETV
vector 245 RSUExampleScenario.node[48].veinsmobility speed ETV
vector 246 RSUExampleScenario.node[50].veinsmobility posx ETV
vector 247 RSUExampleScenario.node[50].veinsmobility posy ETV
vector 248 RSUExampleScenario.node[48].veinsmobility acceleration ETV
vector 249 RSUExampleScenario.node[48].veinsmobility co2emission ETV
vector 250 RSUExampleScenario.node[49].veinsmobility speed ETV
vector 251 RSUExampleScenario.node[51].veinsmobility posx ETV
vector 252 RSUExampleScenario.node[51].veinsmobility posy ETV
vector 253 RSUExampleScenario.node[49].veinsmobility acceleration ETV
vector 254 RSUExampleScenario.node[49].veinsmobility co2emission ETV
vector 255 RSUExampleScenario.node[50].veinsmobility speed ETV
vector 256 RSUExampleScenario.node[52].veinsmobility posx ETV
vector 257 RSUExampleScenario.node[52].veinsmobility posy ETV
vector 258 RSUExampleScenario.node[50].veinsmobility acceleration ETV
vector 259 RSUExampleScenario.node[50].veinsmobility co2emission ETV
vector 260 RSUExampleScenario.node[51].veinsmobility speed ETV
vector 261 RSUExampleScenario.node[53].veinsmobility posx ETV
vector 262 RSUExampleScenario.node[53].veinsmobility posy ETV
vector 263 RSUExampleScenario.node[51].veinsmobility acceleration ETV
vector 264 RSUExampleScenario.node[51].veinsmobility co2emission ETV
vector 265 RSUExampleScenario.node[52].veinsmobility speed ETV
vector 266 RSUExampleScenario.node[54].veinsmobility posx ETV
vector 267 RSUExampleScenario.node[54].veinsmobility posy ETV
vector 268 RSUExampleScenario.node[52].veinsmobility acceleration ETV
vector 269 RSUExampleScenario.node[52].veinsmobility co2emission ETV
vector 270 RSUExampleScenario.node[53].veinsmobility speed ETV
vector 271 RSUExampleScenario.node[55].veinsmobility posx ETV
vector 272 RSUExampleScenario.node[55].veinsmobility posy ETV
vector 273 RSUExampleScenario.node[53].veinsmobility acceleration ETV
vector 274 RSUExampleScenario.node[53].veinsmobility co2emission ETV
vector 275 RSUExampleScenario.node[54].veinsmobility speed ETV
vector 276 RSUExampleScenario.node[56].veinsmobility posx ETV
vector 277 RSUExampleScenario.node[56].veinsmobility posy ETV
vector 278 RSUExampleScenario.node[54].veinsmobility acceleration ETV
vector 279 RSUExampleScenario.node[54].veinsmobility co2emission ETV
vector 280 RSUExampleScenario.node[55].veinsmobility speed ETV
vector 281 RSUExampleScenario.node[57].veinsmobility posx ETV
vector 282 RSUExampleScenario.node[57].veinsmobility posy ETV
vector 283 RSUExampleScenario.node[55].veinsmobility acceleration ETV
vector 284 RSUExampleScenario.node[55].veinsmobility co2emission ETV
vector 285 RSUExampleScenario.node[56].veinsmobility speed ETV
vector 286 RSUExampleScenario.node[58].veinsmobility posx ETV
vector 287 RSUExampleScenario.node[58].veinsmobility posy ETV
vector 288 RSUExampleScenario.node[56].veinsmobility acceleration ETV
vector 289 RSUExampleScenario.node[56].veinsmobility co2emission ETV
vector 290 RSUExampleScenario.node[57].veinsmobility speed ETV
vector 291 RSUExampleScenario.node[59].veinsmobility posx ETV
vector 292 RSUExampleScenario.node[59].veinsmobility posy ETV
vector 293 RSUExampleScenario.node[57].veinsmobility acceleration ETV
vector 294 RSUExampleScenario.node[57].veinsmobility co2emission ETV
vector 295 RSUExampleScenario.node[58].veinsmobility speed ETV
vector 296 RSUExampleScenario.node[60].veinsmobility posx ETV
vector 297 RSUExampleScenario.node[60].veinsmobility posy ETV
vector 298 RSUExampleScenario.node[58].veinsmobility acceleration ETV
vector 299 RSUExampleScenario.node[58].veinsmobility co2emission ETV
vector 300 RSUExampleScenario.node[59].veinsmobility speed ETV
vector 301 RSUExampleScenario.node[61].veinsmobility posx ETV
vector 302 RSUExampleScenario.node[61].veinsmobility posy ETV
vector 303 RSUExampleScenario.node[59].veinsmobility acceleration ETV
vector 304 RSUExampleScenario.node[59].veinsmobility co2emission ETV
vector 305 RSUExampleScenario.node[60].veinsmobility speed ETV
vector 306 RSUExampleScenario.node[62].veinsmobility posx ETV
vector 307 RSUExampleScenario.node[62].veinsmobility posy ETV
vector 308 RSUExampleScenario.node[60].veinsmobility acceleration ETV
vector 309 RSUExampleScenario.node[60].veinsmobility co2emission ETV
vector 310 RSUExampleScenario.node[61].veinsmobility speed ETV
149	31351	32	3.2512736672963
149	34117	33	3.3448061950338
149	37035	34	0.973
149	40134	35	1.4832044231448
149	43510	36	1.5492122572563
149	47052	37	5.0379940932806
149	50808	38	4.9952862097301
149	54664	39	4.8562095224687
149	58746	40	6.3090910485908
149	63061	41	9.2963108710594
149	67603	42	8.0962442871511
149	72381	43	10.74420818347
149	77440	44	10.327771294421
149	82764	45	9.1339989151527
149	88271	46	12.43896524013
149	94050	47	10.784026475252
149	100076	48	18.173165813954
149	106462	49	13.654477892243
149	113190	50	9.0428486786906
149	120303	51	-0.23942471965861
149	127628	52	4.4569769794653
149	135255	53	8.5758072740322
149	143255	54	0.973
149	151410	55	8.4886891325485
149	159940	56	5.4617723602484
149	168854	57	2.338074804693
149	178094	58	4.928536061861
149	187672	59	0.973
149	197529	60	0.973
149	207639	61	0.973
149	217951	62	0.973
149	228641	63	0.973
149	239873	64	0.973
148	31351	32	2.0070312959375
148	34117	33	1.4769877183251
148	37035	34	-2.5590502167353
148	40134	35	0.27824357005302
148	43510	36	0.31240881087724
148	47052	37	2.4945681898855
148	50808	38	1.8304842870217
148	54664	39	1.4403354396112
148	58746	40	1.7141897343332
148	63061	41	2.2879736441653
148	67603	42	1.6539947618498
148	72381	43	2.0425655652303
148	77440	44	1.7113551488612
148	82764	45	1.3103853825713
148	88271	46	1.775802996126
148	94050	47	1.3315228043823
148	100076	48	2.3335992132081
148	106462	49	1.456876385021
148	113190	50	0.70004436958115
148	120303	51	-0.68595285976771
148	127628	52	0.03647215757519
148	135255	53	0.63098936078605
148	143255	54	-0.97356438529678
148	151410	55	0.63856997608673
148	159940	56	0.17003809574526
148	168854	57	-0.29443455378059
148	178094	58	0.097652382287198
148	187672	59	-3.9335655401116
148	197529	60	-3.4073416038968
148	207639	61	-4.5
148	217951	62	-3.9868932986244
148	228641	63	-4.5
148	239873	64	-3.2985942356656
145	28795	31	2.0071809895802
145	31351	32	4.0142122855177
145	34117	33	5.4912000038428
145	37035	34	2.9321497871075
145	40134	35	3.2103933571605
145	43510	36	3.5228021680377
145	47052	37	6.0173703579232
145	50808	38	7.8478546449449
145	54664	39	9.2881900845561
145	58746	40	11.002379818889
145	63061	41	13.290353463055
145	67603	42	14.944348224904
145	72381	43	16.986913790135
145	77440	44	18.698268938996
145	82764	45	20.008654321567
145	88271	46	21.784457317693
145	94050	47	23.115980122075
145	100076	48	25.449579335283
145	106462	49	26.906455720305
145	113190	50	27.606500089886
145	120303	51	26.920547230118
145	127628	52	26.957019387693
145	135255	53	27.588008748479
145	143255	54	26.614444363182
145	151410	55	27.253014339269
145	159940	56	27.423052435014
145	168854	57	27.128617881234
145	178094	58	27.226270263521
145	187672	59	23.292704723409
145	197529	60	19.885363119513
145	207639	61	15.385363119513
145	217951	62	11.398469820888
145	228641	63	6.8984698208882
145	239873	64	3.5998755852226
139	26435	30	4487.3516351559
139	28795	31	4487.3516351559
139	31351	32	4484.7444541962
139	34117	33	4480.8102389874
139	37035	34	4475.4284701538
139	40134	35	4472.5547536021
139	43510	36	4470.8676718383
139	47052	37	4473.8875248942
139	50808	38	4479.784978316
139	54664	39	4487.4764372885
139	58746	40	4496.5814405654
139	63061	41	4507.3683098517
139	67603	42	4520.3249121907
139	72381	43	4534.8629086115
139	77440	44	4551.3868409114
139	82764	45	4569.5754850578
139	88271	46	4589.0387997898
139	94050	47	4610.2295176775
139	100076	48	4632.7154674682
139	106462	49	4657.4714137922
139	113190	50	4683.6445290647
139	120303	51	4710.5983551743
139	127628	52	4737.1251453626
139	135255	53	4763.6999518573
139	143255	54	4790.8888092856
139	151410	55	4817.1181881407
139	159940	56	4843.9667549269
139	168854	57	4871.0613670831
139	178094	58	4897.8996229543
139	187672	59	4924.8447438896
139	197529	60	4947.8892244684
139	207639	61	4967.4619282355
139	217951	62	4982.6053859073
139	228641	63	4993.9290473421
139	239873	64	5000.8447346418
138	26435	30	4492.4711394992
138	28795	31	4492.4711394992
138	31351	32	4489.7354568436
138	34117	33	4490.5292739895
138	37035	34	4491.6151679095
138	40134	35	4492.1950053994
138	43510	36	4490.1360966045
138	47052	37	4488.6679355271
138	50808	38	4487.4749157525
138	54664	39	4485.9189793181
138	58746	40	4484.0040953566
138	63061	41	4481.6788501371
138	67603	42	4478.6579798127
138	72381	43	4475.1919377199
138	77440	44	4471.2545464627
138	82764	45	4466.9204807487
138	88271	46	4462.2826812303
138	94050	47	4457.2332689095
138	100076	48	4451.8752233481
138	106462	49	4445.9762735794
138	113190	50	4439.7396349042
138	120303	51	4434.3285253203
138	127628	52	4429.7623252384
138	135255	53	4425.204435728
138	143255	54	4420.5310390205
138	151410	55	4416.0225636974
138	159940	56	4411.4789094156
138	168854	57	4407.3882166687
138	178094	58	4403.4389373985
138	187672	59	4399.5464421079
138	197529	60	4396.2759520155
138	207639	61	4393.4962268831
138	217951	62	4391.3455454861
138	228641	63	4390.8574167105
138	239873	64	4390.9951565406
vector 311 RSUExampleScenario.node[63].veinsmobility posx ETV
vector 312 RSUExampleScenario.node[63].veinsmobility posy ETV
vector 313 RSUExampleScenario.node[61].veinsmobility acceleration ETV
vector 314 RSUExampleScenario.node[61].veinsmobility co2emission ETV
vector 315 RSUExampleScenario.node[62].veinsmobility speed ETV
vector 316 RSUExampleScenario.node[64].veinsmobility posx ETV
vector 317 RSUExampleScenario.node[64].veinsmobility posy ETV
vector 318 RSUExampleScenario.node[62].veinsmobility acceleration ETV
vector 319 RSUExampleScenario.node[62].veinsmobility co2emission ETV
vector 320 RSUExampleScenario.node[63].veinsmobility speed ETV
vector 321 RSUExampleScenario.node[65].veinsmobility posx ETV
vector 322 RSUExampleScenario.node[65].veinsmobility posy ETV
vector 323 RSUExampleScenario.node[63].veinsmobility acceleration ETV
vector 324 RSUExampleScenario.node[63].veinsmobility co2emission ETV
vector 325 RSUExampleScenario.node[64].veinsmobility speed ETV
vector 326 RSUExampleScenario.node[64].veinsmobility acceleration ETV
vector 327 RSUExampleScenario.node[64].veinsmobility co2emission ETV
vector 328 RSUExampleScenario.node[65].veinsmobility speed ETV
174	47052	37	2.882634271518
174	50808	38	4.4156439453733
174	54664	39	4.5686678258781
174	58746	40	5.6543599547688
174	63061	41	0.973
174	67603	42	2.1326398956095
174	72381	43	2.1178040831206
174	77440	44	3.797026789196
174	82764	45	0.973
174	88271	46	4.498668058346
174	94050	47	7.413583958691
174	100076	48	7.2739009817633
174	106462	49	7.469814805698
174	113190	50	8.687102836408
174	120303	51	9.6594642119124
174	127628	52	2.0684042660437
174	135255	53	0.973
174	143255	54	0.973
174	151410	55	0.973
174	159940	56	3.5562775835062
174	168854	57	4.0393430692891
174	178094	58	5.473243550189
174	187672	59	7.5753440413591
174	197529	60	6.4904945191491
174	207639	61	4.3938513405706
174	217951	62	1.5398095944309
174	228641	63	0.973
174	239873	64	0.973
174	251533	65	0.973
174	263035	66	0.973
174	275125	67	0.973
174	287703	68	5.6215561142652
173	47052	37	1.7263378561707
173	50808	38	2.1060949632199
173	54664	39	1.6702676265268
173	58746	40	1.7800531893025
173	63061	41	-4.5
173	67603	42	0.5695526730887
173	72381	43	0.49214681561571
173	77440	44	1.318861140497
173	82764	45	-1.7475080905605
173	88271	46	1.7265208754689
173	94050	47	2.4639837489929
173	100076	48	1.9464775921544
173	106462	49	1.709380407189
173	113190	50	1.7897169251926
173	120303	51	1.7868136295816
173	127628	52	-0.072891594000776
173	135255	53	-3.3915064501343
173	143255	54	-4.5
173	151410	55	-4.2397213536082
173	159940	56	1.4356013181154
173	168854	57	1.3899356639711
173	178094	58	1.7216041099979
173	187672	59	2.1093714545947
173	197529	60	1.4744947054934
173	207639	61	0.73262328051496
173	217951	62	-0.13675149695482
173	228641	63	-0.28617689241655
173	239873	64	-0.42498813988641
173	251533	65	-1.0783932215272
173	263035	66	-3.3598778530955
173	275125	67	-3.8383820216815
173	287703	68	2.480753472005
170	43510	36	2.0806514079915
170	47052	37	3.8069892641623
170	50808	38	5.9130842273822
170	54664	39	7.583351853909
170	58746	40	9.3634050432115
170	63061	41	4.8634050432115
170	67603	42	5.4329577163002
170	72381	43	5.9251045319159
170	77440	44	7.2439656724129
170	82764	45	5.4964575818524
170	88271	46	7.2229784573213
170	94050	47	9.6869622063142
170	100076	48	11.633439798469
170	106462	49	13.342820205658
170	113190	50	15.13253713085
170	120303	51	16.919350760432
170	127628	52	16.846459166431
170	135255	53	13.454952716297
170	143255	54	8.9549527162967
170	151410	55	4.7152313626885
170	159940	56	6.1508326808039
170	168854	57	7.540768344775
170	178094	58	9.2623724547729
170	187672	59	11.371743909368
170	197529	60	12.846238614861
170	207639	61	13.578861895376
170	217951	62	13.442110398421
170	228641	63	13.155933506005
170	239873	64	12.730945366118
170	251533	65	11.652552144591
170	263035	66	8.2926742914954
170	275125	67	4.4542922698139
170	287703	68	6.9350457418189
162	40134	35	5195.6483467742
162	43510	36	5195.6483467742
162	47052	37	5196.9613384893
162	50808	38	5199.3637329242
162	54664	39	5203.0951751886
162	58746	40	5207.8806371448
162	63061	41	5213.7893987951
162	67603	42	5216.8584427034
162	72381	43	5218.9536127527
162	77440	44	5214.5444524857
162	82764	45	5207.8041634945
162	88271	46	5202.4551009437
162	94050	47	5195.29569564
162	100076	48	5185.6178577834
162	106462	49	5173.9934411471
162	113190	50	5161.0287645919
162	120303	51	5145.9764697867
162	127628	52	5129.1274093291
162	135255	53	5112.3365922273
162	143255	54	5098.9260797902
162	151410	55	5090.0007043312
162	159940	56	5085.5213533016
162	168854	57	5081.6373131936
162	178094	58	5078.4175142249
162	187672	59	5075.0686985955
162	197529	60	5070.6444792948
162	207639	61	5065.6129366391
162	217951	62	5059.996596162
162	228641	63	5056.3615863913
162	239873	64	5053.9761167731
162	251533	65	5052.2436517455
162	263035	66	5050.6579376848
162	275125	67	5049.5294458264
162	287703	68	5048.9232924452
161	40134	35	4447.6726159274
161	43510	36	4447.6726159274
161	47052	37	4446.0581185269
161	50808	38	4443.1040560409
161	54664	39	4438.5157530328
161	58746	40	4432.6313930635
161	63061	41	4425.3657871845
161	67603	42	4421.5919907813
161	72381	43	4416.7474453731
161	77440	44	4413.1068504328
161	82764	45	4410.5229043665
161	88271	46	4409.2569215453
161	94050	47	4408.4990823558
161	100076	48	4408.8227831515
161	106462	49	4409.1427587956
161	113190	50	4405.0555332376
161	120303	51	4403.4326584662
161	127628	52	4401.8176184494
161	135255	53	4400.3568240166
161	143255	54	4399.1901147499
161	151410	55	4398.4136106226
161	159940	56	4397.1538776995
161	168854	57	4392.4480071606
161	178094	58	4385.6469978158
161	187672	59	4377.012180884
161	197529	60	4366.533766751
161	207639	61	4354.7115459877
161	217951	62	4342.3465383245
161	228641	63	4329.491956821
161	239873	64	4316.5599353482
161	251533	65	4303.9484703288
161	263035	66	4292.4052777746
161	275125	67	4284.1904305078
161	287703	68	4279.7779419194
vector 329 RSUExampleScenario.node[65].veinsmobility acceleration ETV
vector 330 RSUExampleScenario.node[65].veinsmobility co2emission ETV
vector 331 RSUExampleScenario.node[66].veinsmobility posx ETV
vector 332 RSUExampleScenario.node[66].veinsmobility posy ETV
vector 333 RSUExampleScenario.node[67].veinsmobility posx ETV
vector 334 RSUExampleScenario.node[67].veinsmobility posy ETV
vector 335 RSUExampleScenario.node[66].veinsmobility speed ETV
0	2	1	5294.1833890436
0	13	2	5294.1833890436
0	46	3	5294.5360574553
0	104	4	5295.2306938048
0	199	5	5296.2061975445
0	325	6	5297.5353248462
0	508	7	5298.6568691519
0	733	8	5299.1886771098
0	1020	9	5294.8758444073
0	1338	10	5287.5836815607
0	1734	11	5278.6606542514
0	2204	12	5267.9281336137
0	2769	13	5255.1725532584
0	3421	14	5241.9489686344
0	4108	15	5229.1427464492
0	4895	16	5216.3118966145
0	5790	17	5203.4145355428
0	6682	18	5190.8236249192
0	7819	19	5180.8344064313
0	9040	20	5175.1390806405
0	10382	21	5168.9964851916
0	11679	22	5166.7942143598
0	13064	23	5167.5018326921
0	14613	24	5168.3776271798
0	16283	25	5169.4348239033
0	18115	26	5170.5332068742
0	20082	27	5171.6347790988
0	22161	28	5172.7365469992
0	24212	29	5173.8835304516
0	26435	30	5174.9982636326
0	28795	31	5176.1622652918
0	31351	32	5178.5063497618
0	34117	33	5181.4663118572
0	37035	34	5186.0745026944
0	40134	35	5193.3289694537
0	43510	36	5201.6617499748
0	47052	37	5211.7380902034
0	50808	38	5222.3356987942
0	54664	39	5234.6099867342
0	58746	40	5247.6312212014
0	63061	41	5260.2437806049
0	67603	42	5268.7994944325
0	72381	43	5272.8877536785
0	77440	44	5273.244999802
0	82764	45	5273.2688316596
0	88271	46	5274.6334012531
0	94050	47	5278.0610820806
0	100076	48	5282.3241957363
0	106462	49	5280.0473728028
0	113190	50	5274.6525171858
0	120303	51	5267.0664376921
0	127628	52	5257.7948828781
0	135255	53	5247.3170800825
0	143255	54	5235.7886661559
0	151410	55	5222.5890648357
0	159940	56	5207.2536641282
0	168854	57	5190.7995206228
0	178094	58	5171.2147397415
0	187672	59	5150.4896548895
0	197529	60	5129.5484872016
0	207639	61	5113.0459865198
0	217951	62	5100.987893648
0	228641	63	5093.3924723205
0	239873	64	5086.8801410797
0	251533	65	5084.6594096348
0	263035	66	5084.8716722792
0	275125	67	5084.2947499146
0	287703	68	5082.2596897351
0	300306	69	5078.7120574271
0	312488	70	5073.8020362308
0	324916	71	5067.8677874139
1	2	1	5383.3899721448
1	13	2	5383.3899721448
1	46	3	5381.5367113195
1	104	4	5377.8864203041
1	199	5	5372.7601804535
1	325	6	5365.7756604934
1	508	7	5359.8819823042
1	733	8	5352.0549255458
1	1020	9	5347.2348289911
1	1338	10	5345.4283275885
1	1734	11	5343.6998262281
1	2204	12	5341.6208035063
1	2769	13	5339.1498889576
1	3421	14	5336.5898004278
1	4108	15	5334.1130159182
1	4895	16	5331.6330233009
1	5790	17	5329.1385178366
1	6682	18	5326.6993605746
1	7819	19	5324.7616371735
1	9040	20	5323.6568494391
1	10382	21	5321.699072789
1	11679	22	5316.4813599748
1	13064	23	5308.3143844246
1	14613	24	5298.2064041182
1	16283	25	5286.0047702736
1	18115	26	5273.3277854386
1	20082	27	5260.6139918384
1	22161	28	5247.8979398461
1	24212	29	5234.6600326521
1	26435	30	5221.7943418999
1	28795	31	5208.3600191068
1	31351	32	5194.7329617325
1	34117	33	5182.2134845919
1	37035	34	5170.0006715166
1	40134	35	5159.0907489012
1	43510	36	5149.586376806
1	47052	37	5141.091583771
1	50808	38	5133.7795456659
1	54664	39	5129.1536850098
1	58746	40	5126.0143167926
1	63061	41	5124.8664427013
1	67603	42	5124.0877837534
1	72381	43	5123.7157096392
1	77440	44	5123.6831965262
1	82764	45	5123.6810275793
1	88271	46	5123.4323170215
1	94050	47	5122.777097006
1	100076	48	5120.7230551736
1	106462	49	5115.3773940452
1	113190	50	5111.4578286147
1	120303	51	5106.8345042582
1	127628	52	5101.3023058057
1	135255	53	5094.8117408288
1	143255	54	5087.1798481684
1	151410	55	5078.4416174737
1	159940	56	5068.2894722741
1	168854	57	5057.2021284497
1	178094	58	5047.8408063557
1	187672	59	5042.1135915029
1	197529	60	5039.0875324606
1	207639	61	5036.8146441558
1	217951	62	5035.2530222921
1	228641	63	5034.2693529727
1	239873	64	5032.5793651699
1	251533	65	5026.9711445224
1	263035	66	5020.4755890387
1	275125	67	5016.4857830696
1	287703	68	5010.5676359242
1	300306	69	5002.7134794483
1	312488	70	4992.7935903276
1	324916	71	4980.8227780591
2	13	2	5058.076969163
2	46	3	5058.076969163
2	104	4	5056.5694731111
2	199	5	5053.4225691611
2	325	6	5048.9231207913
2	508	7	5042.5280326051
2	733	8	5034.9169875698
2	1020	9	5025.9122344608
2	1338	10	5017.1470593381
2	1734	11	5012.4433820128
2	2204	12	5010.7101719209
2	2769	13	5013.3911321181
2	3421	14	5018.5536267477
2	4108	15	5025.2445171485
2	4895	16	5033.5691887904
2	5790	17	5043.9958342958
2	6682	18	5053.9239322928
2	7819	19	5060.1869498862
2	9040	20	5067.5078065875
2	10382	21	5073.7404677268
2	11679	22	5074.7177487683
2	13064	23	5075.6243638883
2	14613	24	5076.6614024513
2	16283	25	5077.8741203903
2	18115	26	5079.2386557631
2	20082	27	5080.7950133154
2	22161	28	5082.0436590539
2	24212	29	5082.9898100702
2	26435	30	5083.8541309645
2	28795	31	5088.1723361366
2	31351	32	5093.4460729709
2	34117	33	5101.0092550591
2	37035	34	5110.5217198052
2	40134	35	5122.5265119792
2	43510	36	5135.8743600805
2	47052	37	5151.2674011272
2	50808	38	5168.2504853515
2	54664	39	5186.2811585369
2	58746	40	5204.0057487505
2	63061	41	5222.0225222358
2	67603	42	5239.6167109311
2	72381	43	5257.6513114706
2	77440	44	5274.3580302822
2	82764	45	5291.8530640478
2	88271	46	5313.1066744518
2	94050	47	5334.5771697457
2	100076	48	5355.5780987479
2	106462	49	5377.0588182429
2	113190	50	5396.7816442464
2	120303	51	5412.0175636466
2	127628	52	5422.7621598363
2	135255	53	5429.0698538223
2	143255	54	5433.47488282
2	151410	55	5434.5276116336
2	159940	56	5435.7509462644
2	168854	57	5437.2796484157
2	178094	58	5439.1330703525
2	187672	59	5441.0816909697
2	197529	60	5442.998547802
2	207639	61	5444.9609740535
2	217951	62	5446.8275347024
2	228641	63	5448.7056169943
2	239873	64	5450.5839480257
2	251533	65	5452.5413845937
2	263035	66	5453.6746327373
2	275125	67	5454.1802264107
2	287703	68	5454.4262637577
2	300306	69	5454.1490516163
2	312488	70	5453.80331221
2	324916	71	5453.2539235802
3	13	2	5168.1945726872
3	46	3	5168.1945726872
3	104	4	5168.9132968885
3	199	5	5170.4136364913
3	325	6	5172.558824488
3	508	7	5175.6077907806
3	733	8	5179.236485036
3	1020	9	5183.5296531524
3	1338	10	5187.7085984179
3	1734	11	5189.9511560181
3	2204	12	5192.1022635593
3	2769	13	5193.0425230075
3	3421	14	5190.5816969514
3	4108	15	5187.3923246385
3	4895	16	5183.424171574
3	5790	17	5178.4540625902
3	6682	18	5173.7215981536
3	7819	19	5170.736181608
3	9040	20	5166.9139190062
3	10382	21	5158.81986493
3	11679	22	5149.0544604904
3	13064	23	5137.5697034594
3	14613	24	5124.432777254
3	16283	25	5109.0788370272
3	18115	26	5091.831286696
3	20082	27	5072.1741405058
3	22161	28	5057.0016922514
3	24212	29	5046.3168209902
3	26435	30	5040.1675328399
3	28795	31	5037.0227737167
3	31351	32	5037.4997207426
3	34117	33	5038.479857529
3	37035	34	5039.7126080456
3	40134	35	5041.3048364129
3	43510	36	5043.2328964346
3	47052	37	5045.4563789637
3	50808	38	5050.1040626994
3	54664	39	5058.0283434628
3	58746	40	5069.9798780883
3	63061	41	5081.9050666239
3	67603	42	5093.5505489571
3	72381	43	5104.941885983
3	77440	44	5115.0301886498
3	82764	45	5122.643820085
3	88271	46	5123.4855834866
3	94050	47	5122.8223246519
3	100076	48	5121.43900444
3	106462	49	5120.0223400919
3	113190	50	5118.7205267135
3	120303	51	5117.7160818943
3	127628	52	5117.0077325198
3	135255	53	5116.8411349601
3	143255	54	5121.2210258185
3	151410	55	5127.4023157904
3	159940	56	5135.7057429164
3	168854	57	5146.0818629008
3	178094	58	5158.8047329973
3	187672	59	5172.3003910315
3	197529	60	5185.5928516344
3	207639	61	5199.1973347008
3	217951	62	5212.1341660946
3	228641	63	5225.1501383624
3	239873	64	5238.1678345089
3	251533	65	5251.7337683318
3	263035	66	5264.4278947732
3	275125	67	5277.99066101
3	287703	68	5291.2845580331
3	300306	69	5305.1045974695
3	312488	70	5318.5806998851
3	324916	71	5329.3172176895
4	13	2	1.8865424470045
4	46	3	3.7158444456989
4	104	4	5.2182989783818
4	199	5	7.1099508477841
4	325	6	5.9995192909455
4	508	7	7.9362731315568
4	733	8	6.8067243768042
4	1020	9	7.531286001429
4	1338	10	9.0901020231796
4	1734	11	10.933476294568
4	2204	12	12.994415771114
4	2769	13	13.46861669464
4	3421	14	13.040917958142
4	4108	15	13.065443730899
4	4895	16	13.13359456813
4	5790	17	12.822708799816
4	6682	18	10.174204015391
4	7819	19	5.800794786922
4	9040	20	6.5258603585744
4	10382	21	5.9842477734294
4	11679	22	8.1975797362719
4	13064	23	10.145858038273
4	14613	24	12.247357144449
4	16283	25	12.724489422222
4	18115	26	12.761436121245
4	20082	27	12.763702976201
4	22161	28	13.287513730964
4	24212	29	12.913902478977
4	26435	30	13.484665360125
4	28795	31	13.863153693834
4	31351	32	12.864638752174
4	34117	33	13.217407155512
4	37035	34	13.130181105956
4	40134	35	12.63995879503
4	43510	36	13.243391222167
4	47052	37	12.882214283068
4	50808	38	13.270579634942
4	54664	39	13.407891359888
4	58746	40	12.664695368291
4	63061	41	8.5910801938648
4	67603	42	4.1051586977628
4	72381	43	0.35872285567535
4	77440	44	0.023930370197502
4	82764	45	1.387691979315
4	88271	46	3.4900415032356
4	94050	47	4.8886351093369
4	100076	48	6.8903494891896
4	106462	49	6.6745728428429
4	113190	50	8.8845352526708
4	120303	51	10.796913346061
4	127628	52	12.328679210711
4	135255	53	13.826083711926
4	143255	54	15.830346999848
4	151410	55	18.391821744661
4	159940	56	19.841384279816
4	168854	57	21.793107370432
4	178094	58	21.650841471208
4	187672	59	21.158953976986
4	197529	60	16.658953976986
4	207639	61	12.158953976986
4	217951	62	7.6589539769856
4	228641	63	6.8338437707489
4	239873	64	6.3351278416673
4	251533	65	6.5128398855543
4	263035	66	4.037003092177
4	275125	67	6.2622123719312
4	287703	68	8.6211300085883
4	300306	69	11.067964352074
4	312488	70	13.360137309099
4	324916	71	13.687228685929
5	45	2.000282124652	1
5	4023	14.000270102052	2
5	11651	21.000272535008	3
5	11656	21.000272704562	4
5	16249	24.000436771104	3
6	46	3	4274.2388786127
6	104	4	4274.2388786127
6	199	5	4275.5572890743
6	325	6	4278.695464026
6	508	7	4283.6373196111
6	733	8	4290.5732553832
6	1020	9	4299.2074643367
6	1338	10	4309.7610164773
6	1734	11	4321.9335268314
6	2204	12	4333.3670024145
6	2769	13	4344.8257754447
6	3421	14	4356.5040980082
6	4108	15	4368.0515250978
6	4895	16	4377.4465547927
6	5790	17	4382.8455151235
6	6682	18	4390.3654877229
6	7819	19	4396.6104655963
6	9040	20	4400.361453914
6	10382	21	4404.8592117856
6	11679	22	4410.4197973883
6	13064	23	4416.7993790784
6	14613	24	4423.7004987447
6	16283	25	4430.5937644654
6	18115	26	4437.6712548313
6	20082	27	4444.7051378994
6	22161	28	4451.1972896769
6	24212	29	4458.309351095
6	26435	30	4464.9961678441
6	28795	31	4471.9999982547
6	31351	32	4478.6466048156
6	34117	33	4484.6747828938
6	37035	34	4489.2203717865
6	40134	35	4493.4418921417
6	43510	36	4497.6216190832
6	47052	37	4501.620041663
6	50808	38	4503.6978177952
6	54664	39	4504.6845507057
6	58746	40	4504.7403885986
6	63061	41	4504.4026731903
6	67603	42	4501.227112966
6	72381	43	4498.7906475403
6	77440	44	4492.5626265839
6	82764	45	4485.2516189916
6	88271	46	4478.2152931531
6	94050	47	4473.3106854895
6	100076	48	4469.5080057376
6	106462	49	4466.8046255617
6	113190	50	4466.652896029
6	120303	51	4467.97
6	127628	52	4465.3222209733
6	135255	53	4461.2272803402
6	143255	54	4455.6031804758
6	151410	55	4449.6457815269
6	159940	56	4443.1702424657
6	168854	57	4435.6506284107
6	178094	58	4427.3609391111
6	187672	59	4419.5534225882
6	197529	60	4413.80241903
6	207639	61	4410.4354059306
6	217951	62	4409.1857871029
6	228641	63	4408.4859280324
6	239873	64	4408.8099440427
6	251533	65	4409.1793056004
6	263035	66	4408.4938184247
6	275125	67	4407.0374999178
6	287703	68	4405.4614552207
6	300306	69	4403.893699643
6	312488	70	4402.2098111577
6	324916	71	4400.3329873528
7	46	3	5587.715017341
7	104	4	5587.715017341
7	199	5	5588.3976797967
7	325	6	5590.0226018382
7	508	7	5592.5814553723
7	733	8	5596.1728277743
7	1020	9	5600.6435525284
7	1338	10	5606.108097926
7	1734	11	5612.4109270158
7	2204	12	5618.3310897765
7	2769	13	5624.2643513542
7	3421	14	5630.3112939348
7	4108	15	5636.2904598796
7	4895	16	5641.1551315651
7	5790	17	5643.9506703026
7	6682	18	5646.3288972673
7	7819	19	5642.6253675531
7	9040	20	5636.6961132781
7	10382	21	5629.2576464762
7	11679	22	5620.0778623893
7	13064	23	5609.5170970561
7	14613	24	5598.1019206498
7	16283	25	5586.6894718944
7	18115	26	5574.8848937987
7	20082	27	5563.1530485116
7	22161	28	5552.3278505385
7	24212	29	5540.4719296991
7	26435	30	5529.3196793922
7	28795	31	5517.433449865
7	31351	32	5505.876270732
7	34117	33	5493.781876601
7	37035	34	5481.9062351894
7	40134	35	5470.0151291032
7	43510	36	5457.9316945364
7	47052	37	5444.9248126462
7	50808	38	5431.2066298784
7	54664	39	5421.9037233887
7	58746	40	5417.0290753459
7	63061	41	5409.7796127151
7	67603	42	5400.6185682997
7	72381	43	5389.1171835109
7	77440	44	5377.4264408132
7	82764	45	5363.7028022415
7	88271	46	5350.4947742836
7	94050	47	5341.2882371461
7	100076	48	5336.8743025604
7	106462	49	5334.0645222683
7	113190	50	5330.9016103297
7	120303	51	5326.074682751
7	127628	52	5319.0989373561
7	135255	53	5311.769971789
7	143255	54	5302.4670058341
7	151410	55	5291.3801224784
7	159940	56	5278.0732455065
7	168854	57	5262.6145921215
7	178094	58	5245.2409033168
7	187672	59	5228.6622532764
7	197529	60	5216.0949247178
7	207639	61	5207.4344628958
7	217951	62	5202.1545419032
7	228641	63	5195.0548070932
7	239873	64	5185.9383262795
7	251533	65	5175.1724139981
7	263035	66	5163.0886153717
7	275125	67	5149.5952824099
7	287703	68	5134.1424137507
7	300306	69	5116.0953278534
7	312488	70	5096.7113878017
7	324916	71	5075.0673385891
8	46	3	1.8293019986944
8	104	4	1.5024545326829
8	199	5	1.8916518694023
8	325	6	-1.1104315568386
8	508	7	1.9367538406113
8	733	8	-1.1295487547526
8	1020	9	0.72456162462477
8	1338	10	1.5588160217507
8	1734	11	1.8433742713882
8	2204	12	2.0609394765459
8	2769	13	0.47420092352666
8	3421	14	-0.42769873649813
8	4108	15	0.024525772756897
8	4895	16	0.068150837230496
8	5790	17	-0.31088576831389
8	6682	18	-2.6485047844245
8	7819	19	-4.3734092284692
8	9040	20	0.72506557165241
8	10382	21	-0.54161258514505
8	11679	22	2.2133319628425
8	13064	23	1.9482783020008
8	14613	24	2.1014991061762
8	16283	25	0.47713227777276
8	18115	26	0.036946699023247
8	20082	27	0.0022668549558134
8	22161	28	0.52381075476296
8	24212	29	-0.37361125198658
8	26435	30	0.57076288114768
8	28795	31	0.37848833370954
8	31351	32	-0.99851494166069
8	34117	33	0.35276840333827
8	37035	34	-0.087226049555467
8	40134	35	-0.49022231092676
8	43510	36	0.60343242713716
8	47052	37	-0.3611769390991
8	50808	38	0.38836535187438
8	54664	39	0.1373117249459
8	58746	40	-0.74319599159703
8	63061	41	-4.0736151744262
8	67603	42	-4.4859214961019
8	72381	43	-3.7464358420875
8	77440	44	-0.33479248547785
8	82764	45	1.3637616091175
8	88271	46	2.1023495239206
8	94050	47	1.3985936061013
8	100076	48	2.0017143798526
8	106462	49	-0.21577664634666
8	113190	50	2.2099624098279
8	120303	51	1.9123780933907
8	127628	52	1.5317658646498
8	135255	53	1.4974045012146
8	143255	54	2.0042632879224
8	151410	55	2.5614747448126
8	159940	56	1.4495625351556
8	168854	57	1.9517230906151
8	178094	58	-0.14226589922328
8	187672	59	-0.49188749422269
8	197529	60	-4.5
8	207639	61	-4.5
8	217951	62	-4.5
8	228641	63	-0.82511020623663
8	239873	64	-0.49871592908166
8	251533	65	0.177712043887
8	263035	66	-2.4758367933773
8	275125	67	2.2252092797542
8	287703	68	2.3589176366571
8	300306	69	2.4468343434855
8	312488	70	2.2921729570255
8	324916	71	0.32709137683012
9	46	3	2.932165777894
9	104	4	3.2643594894883
9	199	5	4.7275286458756
9	325	6	0.973
9	508	7	5.2433388748848
9	733	8	0.973
9	1020	9	2.8278796072917
9	1338	10	5.0328146563245
9	1734	11	6.6154016989647
9	2204	12	8.3936953544299
9	2769	13	3.5246574700205
9	3421	14	0.973
9	4108	15	2.0235400547513
9	4895	16	2.1685533468998
9	5790	17	0.973
9	6682	18	0.973
9	7819	19	0.973
9	9040	20	2.5908151372533
9	10382	21	0.973
9	11679	22	5.9290365421117
9	13064	23	6.4597527508561
9	14613	24	8.0733317735372
9	16283	25	3.3773282447717
9	18115	26	2.0312282660087
9	20082	27	1.9247831132123
9	22161	28	3.645106463062
9	24212	29	0.973
9	26435	30	3.8418809939634
9	28795	31	3.2894223862724
9	31351	32	0.973
9	34117	33	3.0846246118189
9	37035	34	1.6764989581724
9	40134	35	0.973
9	43510	36	3.88938134528
9	47052	37	0.973
9	50808	38	3.2081414873909
9	54664	39	2.4231584246249
9	58746	40	0.973
9	63061	41	0.973
9	67603	42	0.973
9	72381	43	0.973
9	77440	44	0.973
9	82764	45	1.633277054013
9	88271	46	3.0505728237236
9	94050	47	3.0043891205913
9	100076	48	4.7966059062171
9	106462	49	0.973
9	113190	50	6.3352871686244
9	120303	51	6.723229250028
9	127628	52	6.4290462053723
9	135255	53	7.0106087096761
9	143255	54	9.8866228198336
9	151410	55	13.925484125491
9	159940	56	9.7202150859654
9	168854	57	13.368179331644
9	178094	58	2.3496696741713
9	187672	59	0.49751729539123
9	197529	60	0.973
9	207639	61	0.973
9	217951	62	0.973
9	228641	63	0.973
9	239873	64	0.973
9	251533	65	1.7286354167966
9	263035	66	0.973
9	275125	67	4.7930457004008
9	287703	68	6.4861807055058
9	300306	69	8.2958036296805
9	312488	70	9.355111089909
9	324916	71	3.0860977799926
10	46	3	1.6702538255369
10	104	4	3.4866614440456
10	199	5	4.9852341856109
10	325	6	7.0855379649205
10	508	7	8.4327763716457
10	733	8	9.9769570272416
10	1020	9	9.7115128506754
10	1338	10	5.2115128506754
10	1734	11	2.9733792753657
10	2204	12	3.4077679520939
10	2769	13	5.7187501509208
10	3421	14	7.4118295968743
10	4108	15	9.221649730159
10	4895	16	11.550109944004
10	5790	17	10.997844257808
10	6682	18	6.937853765845
10	7819	19	8.2643910162232
10	9040	20	10.538662779392
10	10382	21	9.8288384989044
10	11679	22	11.519515438182
10	13064	23	13.176684872331
10	14613	24	15.40229656735
10	16283	25	17.304167294865
10	18115	26	19.72220293676
10	20082	27	15.22220293676
10	22161	28	10.72220293676
10	24212	29	6.2222029367602
10	26435	30	5.8296536562126
10	28795	31	5.3055541451881
10	31351	32	7.6262091876799
10	34117	33	9.5917360176891
10	37035	34	12.109786237343
10	40134	35	13.485995220891
10	43510	36	15.552355436943
10	47052	37	17.729452035003
10	50808	38	19.733383115157
10	54664	39	21.380758686508
10	58746	40	21.604813130042
10	63061	41	21.098070597816
10	67603	42	21.335648797341
10	72381	43	19.515975657133
10	77440	44	19.250672719167
10	82764	45	21.266593576623
10	88271	46	21.509049634291
10	94050	47	21.048072112077
10	100076	48	21.530301621025
10	106462	49	19.765353680551
10	113190	50	15.265353680551
10	120303	51	10.765353680551
10	127628	52	6.323566219965
10	135255	53	6.7226971233124
10	143255	54	6.2787118370738
10	151410	55	8.3935310931737
10	159940	56	10.488715610267
10	168854	57	12.856561653465
10	178094	58	13.63777034265
10	187672	59	13.432482890445
10	197529	60	13.739639570527
10	207639	61	13.069867615248
10	217951	62	13.151800194299
10	228641	63	13.15354206258
10	239873	64	13.707500862619
10	251533	65	12.747074663998
10	263035	66	13.572311104634
10	275125	67	13.301450354359
10	287703	68	13.82360187728
10	300306	69	13.476732775695
10	312488	70	10.748519815497
10	324916	71	7.0490860189816
11	104	4	5542.2974068768
11	199	5	5542.2974068768
11	325	6	5541.6193443797
11	508	7	5540.1026103553
11	733	8	5537.7895244214
11	1020	9	5535.1227312657
11	1338	10	5532.4651866453
11	1734	11	5527.2931286606
11	2204	12	5522.4181687348
11	2769	13	5516.1736176055
11	3421	14	5508.3310516531
11	4108	15	5498.2840662346
11	4895	16	5485.9667466022
11	5790	17	5474.5482258476
11	6682	18	5466.8238965771
11	7819	19	5462.954770779
11	9040	20	5458.2957933277
11	10382	21	5456.253881547
11	11679	22	5456.8050689995
11	13064	23	5457.1499339371
11	14613	24	5457.4357630757
11	16283	25	5457.6978149654
11	18115	26	5457.2382713679
11	20082	27	5456.6955179524
11	22161	28	5455.2712917979
11	24212	29	5453.3319568255
11	26435	30	5451.3830242738
11	28795	31	5449.5141890915
11	31351	32	5447.5897063582
11	34117	33	5445.6851919979
11	37035	34	5443.8416239627
11	40134	35	5441.8508914099
11	43510	36	5439.837709698
11	47052	37	5438.3892834753
11	50808	38	5437.3865563809
11	54664	39	5435.3683991983
11	58746	40	5429.0344856057
11	63061	41	5421.9175153715
11	67603	42	5412.7199026201
11	72381	43	5401.5165758274
11	77440	44	5388.249007267
11	82764	45	5372.8606396565
11	88271	46	5355.2699768126
11	94050	47	5336.3543625863
11	100076	48	5319.0277269182
11	106462	49	5306.1772772185
11	113190	50	5295.7466318723
11	120303	51	5285.7485840021
11	127628	52	5277.1810421989
11	135255	53	5267.4826789783
11	143255	54	5255.8912897643
11	151410	55	5244.1135801428
11	159940	56	5231.4360373087
11	168854	57	5217.0853023484
11	178094	58	5201.4900213687
11	187672	59	5184.3240691367
11	197529	60	5164.8478859021
11	207639	61	5144.3441700359
11	217951	62	5127.2391791832
11	228641	63	5113.5547313579
11	239873	64	5104.3193525183
11	251533	65	5096.855331874
11	263035	66	5091.6619688853
11	275125	67	5090.6433004093
11	287703	68	5090.3530138272
11	300306	69	5087.8166517696
11	312488	70	5085.1605463614
11	324916	71	5084.7678403543
12	104	4	5351.3318839542
12	199	5	5351.3318839542
12	325	6	5352.9885867472
12	508	7	5356.694406646
12	733	8	5362.3459445847
12	1020	9	5368.8616915672
12	1338	10	5374.4751156268
12	1734	11	5375.4816046112
12	2204	12	5373.1687271086
12	2769	13	5370.006318038
12	3421	14	5366.0270550022
12	4108	15	5360.9303657294
12	4895	16	5354.6844002991
12	5790	17	5348.895550294
12	6682	18	5344.9798414836
12	7819	19	5343.018458243
12	9040	20	5339.6377138965
12	10382	21	5332.6855934857
12	11679	22	5323.8013220472
12	13064	23	5313.1955314148
12	14613	24	5300.8219123317
12	16283	25	5287.7001433194
12	18115	26	5274.1547043521
12	20082	27	5261.077042644
12	22161	28	5248.2237232671
12	24212	29	5234.7832418104
12	26435	30	5221.276244724
12	28795	31	5208.3243591698
12	31351	32	5194.9852460174
12	34117	33	5181.7810165497
12	37035	34	5168.9967777564
12	40134	35	5155.2633154702
12	43510	36	5141.5361825396
12	47052	37	5131.7049382628
12	50808	38	5124.8988926027
12	54664	39	5117.3296190289
12	58746	40	5113.6495985473
12	63061	41	5113.8508526414
12	67603	42	5114.4594365327
12	72381	43	5115.2007336931
12	77440	44	5116.0786167614
12	82764	45	5117.0881085004
12	88271	46	5118.2458099477
12	94050	47	5119.4922323616
12	100076	48	5120.5164165793
12	106462	49	5120.0134632456
12	113190	50	5119.5972943686
12	120303	51	5117.752703166
12	127628	52	5113.0292868033
12	135255	53	5107.0828692246
12	143255	54	5100.1664601909
12	151410	55	5092.6910009046
12	159940	56	5084.29837667
12	168854	57	5074.7980872536
12	178094	58	5064.4738994509
12	187672	59	5053.1891670637
12	197529	60	5045.3076959075
12	207639	61	5041.2255512424
12	217951	62	5038.7538308011
12	228641	63	5036.8805307824
12	239873	64	5035.6844735229
12	251533	65	5034.7178216689
12	263035	66	5034.0452385933
12	275125	67	5033.913312676
12	287703	68	5033.8757181842
12	300306	69	5033.1899019244
12	312488	70	5030.2745991719
12	324916	71	5024.5686971797
13	104	4	1.8164076185087
13	199	5	1.4985727415653
13	325	6	2.1003037793096
13	508	7	1.3472384067252
13	733	8	1.5441806555958
13	1020	9	-0.26544417656617
13	1338	10	-4.5
13	1734	11	-2.2381335753097
13	2204	12	0.43438867672812
13	2769	13	2.310982198827
13	3421	14	1.6930794459535
13	4108	15	1.8098201332847
13	4895	16	2.3284602138447
13	5790	17	-0.55226568619607
13	6682	18	-4.0599904919625
13	7819	19	1.3265372503782
13	9040	20	2.2742717631685
13	10382	21	-0.70982428048737
13	11679	22	1.6906769392779
13	13064	23	1.6571694341488
13	14613	24	2.2256116950186
13	16283	25	1.9018707275158
13	18115	26	2.4180356418947
13	20082	27	-4.5
13	22161	28	-4.5
13	24212	29	-4.5
13	26435	30	-0.39254928054754
13	28795	31	-0.52409951102454
13	31351	32	2.3206550424919
13	34117	33	1.9655268300092
13	37035	34	2.5180502196541
13	40134	35	1.376208983548
13	43510	36	2.0663602160523
13	47052	37	2.1770965980599
13	50808	38	2.0039310801541
13	54664	39	1.6473755713506
13	58746	40	0.22405444353353
13	63061	41	-0.50674253222533
13	67603	42	0.23757819952443
13	72381	43	-1.8196731402073
13	77440	44	-0.26530293796677
13	82764	45	2.0159208574565
13	88271	46	0.24245605766773
13	94050	47	-0.46097752221394
13	100076	48	0.48222950894851
13	106462	49	-1.7649479404744
13	113190	50	-4.5
13	120303	51	-4.5
13	127628	52	-4.4417874605861
13	135255	53	0.3991309033474
13	143255	54	-0.4439852862386
13	151410	55	2.1148192560999
13	159940	56	2.095184517093
13	168854	57	2.3678460431984
13	178094	58	0.78120868918486
13	187672	59	-0.20528745220508
13	197529	60	0.30715668008197
13	207639	61	-0.6697719552787
13	217951	62	0.081932579050772
13	228641	63	0.0017418682808064
13	239873	64	0.55395880003925
13	251533	65	-0.96042619862128
13	263035	66	0.82523644063622
13	275125	67	-0.27086075027473
13	287703	68	0.52215152292047
13	300306	69	-0.34686910158489
13	312488	70	-2.7282129601979
13	324916	71	-3.6994337965152
14	104	4	2.8084129983557
14	199	5	3.1623804459024
14	325	6	5.0711776407987
14	508	7	4.3101853111019
14	733	8	5.3959301466013
14	1020	9	0.973
14	1338	10	0.973
14	1734	11	0.973
14	2204	12	1.6347978191187
14	2769	13	4.5881888961082
14	3421	14	4.5294253518731
14	4108	15	5.6494718284923
14	4895	16	8.290965767129
14	5790	17	0.973
14	6682	18	0.973
14	7819	19	4.2029067639784
14	9040	20	7.502746609856
14	10382	21	0.973
14	11679	22	6.5005773987511
14	13064	23	7.2194637446599
14	14613	24	10.451916870535
14	16283	25	10.354790171389
14	18115	26	14.263107273463
14	20082	27	0.973
14	22161	28	0.973
14	24212	29	0.973
14	26435	30	0.973
14	28795	31	0.973
14	31351	32	5.7840314265616
14	34117	33	6.1977536701423
14	37035	34	9.2070533372441
14	40134	35	6.4599954881586
14	43510	36	9.952711968086
14	47052	37	11.782386445261
14	50808	38	12.30199184796
14	54664	39	11.532848370373
14	58746	40	4.2504026418688
14	63061	41	0.41873289214438
14	67603	42	4.2580350333008
14	72381	43	0.973
14	77440	44	1.4668407358288
14	82764	45	13.356515462218
14	88271	46	4.3236671603165
14	94050	47	0.64842066842898
14	100076	48	5.5727987807496
14	106462	49	0.973
14	113190	50	0.973
14	120303	51	0.973
14	127628	52	0.973
14	135255	53	2.1090303015876
14	143255	54	0.973
14	151410	55	5.8474739560758
14	159940	56	7.0187378123649
14	168854	57	9.2631211271243
14	178094	58	4.5698031794528
14	187672	59	1.3173141581141
14	197529	60	3.0294802980488
14	207639	61	0.973
14	217951	62	2.2142844907023
14	228641	63	1.960281577875
14	239873	64	3.8391860944672
14	251533	65	0.973
14	263035	66	4.6949750083426
14	275125	67	1.1007824059651
14	287703	68	3.7604182518425
14	300306	69	0.973
14	312488	70	0.973
14	324916	71	0.973
15	104	4	1.4846706941957
15	199	5	3.5339194583707
15	325	6	5.5650560854003
15	508	7	7.8106029025279
15	733	8	9.7230395045364
15	1020	9	11.884424494416
15	1338	10	13.70754398935
15	1734	11	12.875312071652
15	2204	12	12.903799693435
15	2769	13	13.151035867175
15	3421	14	13.003633612799
15	4108	15	10.579804746745
15	4895	16	6.0798047467448
15	5790	17	8.013339537573
15	6682	18	7.6334930219268
15	7819	19	7.0262938852701
15	9040	20	8.6950685280655
15	10382	21	10.731794045055
15	11679	22	12.334663231652
15	13064	23	13.338988442868
15	14613	24	13.332600691831
15	16283	25	13.763562095407
15	18115	26	13.678759189239
15	20082	27	12.621822034274
15	22161	28	13.824518923634
15	24212	29	13.005291897557
15	26435	30	13.802575479946
15	28795	31	13.33691300143
15	31351	32	13.529082679083
15	34117	33	12.71516433862
15	37035	34	12.619256324144
15	40134	35	12.786373379673
15	43510	36	13.643197712055
15	47052	37	13.875144308349
15	50808	38	9.3751443083491
15	54664	39	4.8751443083491
15	58746	40	7.2673132216651
15	63061	41	9.7445179311885
15	67603	42	11.214182838132
15	72381	43	13.147185511687
15	77440	44	15.433341307971
15	82764	45	14.853495478989
15	88271	46	10.353495478989
15	94050	47	5.8534954789894
15	100076	48	3.899279080322
15	106462	49	3.8646091317665
15	113190	50	5.3124130674079
15	120303	51	7.4956781491777
15	127628	52	8.3964032159699
15	135255	53	10.869967817264
15	143255	54	12.596635225792
15	151410	55	14.797046270994
15	159940	56	17.188534665601
15	168854	57	19.248670738451
15	178094	58	18.319308129612
15	187672	59	13.823195299501
15	197529	60	9.3231952995013
15	207639	61	5.4254108071976
15	217951	62	7.1554027532876
15	228641	63	9.1249474059974
15	239873	64	10.774562629424
15	251533	65	12.113461100049
15	263035	66	13.577479268559
15	275125	67	15.540335918795
15	287703	68	18.12277460447
15	300306	69	19.465235468158
15	312488	70	21.723595524574
15	324916	71	23.30055513917
16	199	5	4992.3116918429
16	325	6	4992.3116918429
16	508	7	4991.2358857855
16	733	8	4988.6822804174
16	1020	9	4984.7386111592
16	1338	10	4981.9192097486
16	1734	11	4980.9815436971
16	2204	12	4983.3683427508
16	2769	13	4985.6637507276
16	3421	14	4988.9718503514
16	4108	15	4993.280002894
16	4895	16	4997.0543571872
16	5790	17	5001.5255196575
16	6682	18	5002.0107983514
16	7819	19	4997.8139358751
16	9040	20	4992.2299177938
16	10382	21	4985.0878834377
16	11679	22	4976.2201730982
16	13064	23	4966.269101666
16	14613	24	4955.2421780442
16	16283	25	4945.0428832457
16	18115	26	4937.4660339532
16	20082	27	4932.223611945
16	22161	28	4928.8546818254
16	24212	29	4923.0336302927
16	26435	30	4915.5035594597
16	28795	31	4906.3087467443
16	31351	32	4895.2970962087
16	34117	33	4882.5691017946
16	37035	34	4867.5037013318
16	40134	35	4850.2467173712
16	43510	36	4833.411282837
16	47052	37	4816.3099765411
16	50808	38	4800.5857136182
16	54664	39	4784.6173225137
16	58746	40	4768.5026444616
16	63061	41	4752.0946608722
16	67603	42	4735.0094666073
16	72381	43	4716.3827197008
16	77440	44	4694.655749402
16	82764	45	4675.9131608917
16	88271	46	4660.4910494959
16	94050	47	4649.5132943446
16	100076	48	4642.9798954379
16	106462	49	4638.8949336231
16	113190	50	4633.8294409152
16	120303	51	4627.47726403
16	127628	52	4619.8713345993
16	135255	53	4611.0868324911
16	143255	54	4604.1663757787
16	151410	55	4596.3865714171
16	159940	56	4584.5732880537
16	168854	57	4573.9282248957
16	178094	58	4562.261185458
16	187672	59	4549.5611484505
16	197529	60	4536.6678073302
16	207639	61	4522.4979328044
16	217951	62	4508.824915789
16	228641	63	4497.91473892
16	239873	64	4489.1363830985
16	251533	65	4481.8388145396
16	263035	66	4473.276767904
16	275125	67	4464.6673509574
16	287703	68	4458.9744150799
16	300306	69	4455.8312635394
16	312488	70	4450.427309065
16	324916	71	4443.0060662757
17	199	5	4428.0971601208
17	325	6	4428.0971601208
17	508	7	4429.0539963917
17	733	8	4431.3252071001
17	1020	9	4434.8327591915
17	1338	10	4437.3403724488
17	1734	11	4439.5205315811
17	2204	12	4440.2972247901
17	2769	13	4438.2943781459
17	3421	14	4435.3521101729
17	4108	15	4431.5203817821
17	4895	16	4428.1634206811
17	5790	17	4423.0682534998
17	6682	18	4415.4906334345
17	7819	19	4408.5340547331
17	9040	20	4400.2251029034
17	10382	21	4389.8478979703
17	11679	22	4377.5116151029
17	13064	23	4363.6682184062
17	14613	24	4348.3283654537
17	16283	25	4334.1459334602
17	18115	26	4323.6165145552
17	20082	27	4316.563611945
17	22161	28	4314.0161706255
17	24212	29	4313.4246770592
17	26435	30	4315.9302741063
17	28795	31	4318.7223793305
17	31351	32	4321.6544914639
17	34117	33	4325.0017615267
17	37035	34	4328.936490195
17	40134	35	4328.857638448
17	43510	36	4320.4745622976
17	47052	37	4308.0235369821
17	50808	38	4293.7462921196
17	54664	39	4279.2687238631
17	58746	40	4265.0469331695
17	63061	41	4251.4864426697
17	67603	42	4237.915367971
17	72381	43	4229.013272803
17	77440	44	4231.1721032695
17	82764	45	4234.1471173188
17	88271	46	4236.5950715086
17	94050	47	4238.3375723263
17	100076	48	4239.3746197718
17	106462	49	4240.023026409
17	113190	50	4240.8270728706
17	120303	51	4241.9270746967
17	127628	52	4243.514708235
17	135255	53	4247.41209093
17	143255	54	4257.1600734617
17	151410	55	4268.119999491
17	159940	56	4279.2468153577
17	168854	57	4294.2566763378
17	178094	58	4310.7075547789
17	187672	59	4329.5869004591
17	197529	60	4351.2011763892
17	207639	61	4374.955420928
17	217951	62	4398.4543435368
17	228641	63	4418.3454952144
17	239873	64	4434.255605519
17	251533	65	4445.7920450989
17	263035	66	4455.8780012064
17	275125	67	4465.9929977488
17	287703	68	4472.6814909504
17	300306	69	4476.3743039669
17	312488	70	4479.6717323567
17	324916	71	4478.0202478653
18	199	5	2.049248764175
18	325	6	2.0311366270296
18	508	7	2.2455468171276
18	733	8	1.9124366020085
18	1020	9	2.16138498988
18	1338	10	1.8231194949336
18	1734	11	-0.83223191769794
18	2204	12	0.028487621783279
18	2769	13	0.24723617373966
18	3421	14	-0.14740225437563
18	4108	15	-2.4238288660546
18	4895	16	-4.5
18	5790	17	1.9335347908282
18	6682	18	-0.3798465156462
18	7819	19	-0.60719913665671
18	9040	20	1.6687746427953
18	10382	21	2.0367255169898
18	11679	22	1.6028691865969
18	13064	23	1.0043252112158
18	14613	24	-0.0063877510372556
18	16283	25	0.43096140357666
18	18115	26	-0.084802906168626
18	20082	27	-1.0569371549645
18	22161	28	1.2026968893595
18	24212	29	-0.81922702607699
18	26435	30	0.79728358238935
18	28795	31	-0.46566247851588
18	31351	32	0.19216967765242
18	34117	33	-0.81391834046226
18	37035	34	-0.095908014476299
18	40134	35	0.1671170555288
18	43510	36	0.85682433238253
18	47052	37	0.23194659629371
18	50808	38	-4.5
18	54664	39	-4.5
18	58746	40	2.392168913316
18	63061	41	2.4772047095234
18	67603	42	1.4696649069432
18	72381	43	1.9330026735552
18	77440	44	2.2861557962839
18	82764	45	-0.57984582898125
18	88271	46	-4.5
18	94050	47	-4.5
18	100076	48	-1.9542163986674
18	106462	49	-0.034669948555529
18	113190	50	1.4478039356414
18	120303	51	2.1832650817698
18	127628	52	0.90072506679222
18	135255	53	2.4735646012938
18	143255	54	1.7266674085287
18	151410	55	2.2004110452021
18	159940	56	2.3914883946069
18	168854	57	2.0601360728499
18	178094	58	-0.92936260883957
18	187672	59	-4.4961128301104
18	197529	60	-4.5
18	207639	61	-3.8977844923036
18	217951	62	1.72999194609
18	228641	63	1.9695446527097
18	239873	64	1.6496152234264
18	251533	65	1.3388984706253
18	263035	66	1.4640181685099
18	275125	67	1.9628566502361
18	287703	68	2.5824386856752
18	300306	69	1.342460863688
18	312488	70	2.2583600564161
18	324916	71	1.5769596145954
19	199	5	3.0298463926687
19	325	6	4.1184965167536
19	508	7	5.757718036391
19	733	8	6.1452752246671
19	1020	9	8.0288901011322
19	1338	10	8.0318915074408
19	1734	11	0.973
19	2204	12	2.0195545640148
19	2769	13	2.7381090446338
19	3421	14	1.4784815734239
19	4108	15	0.973
19	4895	16	0.973
19	5790	17	5.278169540139
19	6682	18	0.973
19	7819	19	0.973
19	9040	20	5.0871149695092
19	10382	21	7.0095918753969
19	11679	22	6.6431616639485
19	13064	23	5.2013241556258
19	14613	24	1.951575877567
19	16283	25	3.4443214739977
19	18115	26	1.726739262153
19	20082	27	0.973
19	22161	28	6.0280056221235
19	24212	29	0.973
19	26435	30	4.6708511476583
19	28795	31	0.973
19	31351	32	2.6179726636499
19	34117	33	0.973
19	37035	34	1.6127145946813
19	40134	35	2.434903009898
19	43510	36	4.8199917149822
19	47052	37	2.8017113944627
19	50808	38	0.973
19	54664	39	0.973
19	58746	40	5.6857299906445
19	63061	41	7.4830923668068
19	67603	42	5.753194457847
19	72381	43	8.078812849464
19	77440	44	10.697301039573
19	82764	45	0.973
19	88271	46	0.973
19	94050	47	0.973
19	100076	48	0.973
19	106462	49	1.2694701579168
19	113190	50	3.2337319000073
19	120303	51	5.4544741401921
19	127628	52	3.3923725729408
19	135255	53	8.2329182343491
19	143255	54	7.1441042530916
19	151410	55	9.96996311516
19	159940	56	12.314890307604
19	168854	57	12.254214545461
19	178094	58	0.973
19	187672	59	0.973
19	197529	60	0.973
19	207639	61	0.973
19	217951	62	4.4723082847284
19	228641	63	5.9516255340902
19	239873	64	6.0288210435244
19	251533	65	5.767260368577
19	263035	66	6.7867201198637
19	275125	67	9.5576977116699
19	287703	68	13.813125820218
19	300306	69	9.0279711591817
19	312488	70	14.928372944382
19	324916	71	12.257946192971
20	199	5	1.7893671946833
20	325	6	4.0025722078513
20	508	7	6.1040982301347
20	733	8	7.0375108608422
20	1020	9	6.2267319139419
20	1338	10	5.7243095479766
20	1734	11	5.4031775529357
20	2204	12	6.9966737604793
20	2769	13	8.794659562232
20	3421	14	11.26559510523
20	4108	15	13.815642052037
20	4895	16	12.805134072748
20	5790	17	8.6555323169561
20	6682	18	4.335566521156
20	7819	19	5.7909478600596
20	9040	20	7.5496214799111
20	10382	21	8.8987763715203
20	11679	22	10.614704126771
20	13064	23	12.377516871294
20	14613	24	13.121865408155
20	16283	25	13.551556792865
20	18115	26	13.089772562296
20	20082	27	12.941012269757
20	22161	28	13.580739340615
20	24212	29	13.647949092961
20	26435	30	13.087044705064
20	28795	31	13.473977711783
20	31351	32	13.337908895276
20	34117	33	12.918907491057
20	37035	34	13.877987908837
20	40134	35	13.872792086178
20	43510	36	9.9379272280411
20	47052	37	6.879900913491
20	50808	38	7.9114254969824
20	54664	39	7.7204768285807
20	58746	40	7.1333461605432
20	63061	41	9.2153816241492
20	67603	42	11.224970505382
20	72381	43	13.293200182887
20	77440	44	15.42449095577
20	82764	45	17.628682029918
20	88271	46	18.955236801524
20	94050	47	17.361342070536
20	100076	48	12.861342070536
20	106462	49	10.443857056599
20	113190	50	10.265629350329
20	120303	51	9.7958237513064
20	127628	52	11.376750660474
20	135255	53	13.498407485676
20	143255	54	13.953879764614
20	151410	55	15.204239681298
20	159940	56	17.210907255048
20	168854	57	18.703497437626
20	178094	58	20.560100712958
20	187672	59	21.01437668121
20	197529	60	21.007887875363
20	207639	61	17.282881242639
20	217951	62	13.812629075275
20	228641	63	9.3126290752753
20	239873	64	7.5264541799121
20	251533	65	5.2368033847426
20	263035	66	1.0271892287898
20	275125	67	0.29271471282977
20	287703	68	2.6318857378936
20	300306	69	4.0919942996143
20	312488	70	5.7872633790276
20	324916	71	6.3747204702055
23	325	6	2.213205013168
23	508	7	2.1015260222834
23	733	8	0.93341263070749
23	1020	9	-0.81077894690027
23	1338	10	-0.50242236596532
23	1734	11	-0.32113199504092
23	2204	12	1.5934962075436
23	2769	13	1.7979858017527
23	3421	14	2.4709355429979
23	4108	15	2.5500469468068
23	4895	16	-1.0105079792888
23	5790	17	-4.1496017557918
23	6682	18	-4.3199657958001
23	7819	19	1.4553813389037
23	9040	20	1.7586736198515
23	10382	21	1.3491548916092
23	11679	22	1.7159277552506
23	13064	23	1.7628127445234
23	14613	24	0.74434853686082
23	16283	25	0.42969138470944
23	18115	26	-0.46178423056845
23	20082	27	-0.14876029253937
23	22161	28	0.63972707085777
23	24212	29	0.06720975234639
23	26435	30	-0.56090438789688
23	28795	31	0.38693300671875
23	31351	32	-0.1360688165063
23	34117	33	-0.41900140421931
23	37035	34	0.95908041778021
23	40134	35	-0.0051958226598803
23	43510	36	-3.9348648581364
23	47052	37	-3.0580263145501
23	50808	38	1.0315245834914
23	54664	39	-0.19094866840169
23	58746	40	-0.58713066803757
23	63061	41	2.082035463606
23	67603	42	2.0095888812328
23	72381	43	2.0682296775049
23	77440	44	2.1312907728832
23	82764	45	2.2041910741478
23	88271	46	1.3265547716059
23	94050	47	-1.5938947309877
23	100076	48	-4.5
23	106462	49	-2.417485013937
23	113190	50	-0.17822770626992
23	120303	51	-0.46980559902276
23	127628	52	1.5809269091672
23	135255	53	2.1216568252025
23	143255	54	0.45547227893838
23	151410	55	1.2503599166838
23	159940	56	2.00666757375
23	168854	57	1.4925901825773
23	178094	58	1.8566032753326
23	187672	59	0.45427596825142
23	197529	60	-0.0064888058463097
23	207639	61	-3.7250066327243
23	217951	62	-3.4702521673637
23	228641	63	-4.5
23	239873	64	-1.7861748953632
23	251533	65	-2.2896507951695
23	263035	66	-4.2096141559528
23	275125	67	-0.73447451596005
23	287703	68	2.3391710250638
23	300306	69	1.4601085617207
23	312488	70	1.6952690794133
23	324916	71	0.58745709117788
24	325	6	3.4439093477235
24	508	7	4.517001266416
24	733	8	3.0647928681765
24	1020	9	0.973
24	1338	10	0.973
24	1734	11	0.973
24	2204	12	4.1661110679475
24	2769	13	5.4079476521537
24	3421	14	8.4941425193714
24	4108	15	10.510630547046
24	4895	16	0.973
24	5790	17	0.973
24	6682	18	0.973
24	7819	19	3.4384523179366
24	9040	20	4.7137789084027
24	10382	21	4.4977788301301
24	11679	22	6.1221263269398
24	13064	23	7.1407047978398
24	14613	24	4.3056217163039
24	16283	25	3.3969676984643
24	18115	26	0.973
24	20082	27	1.4705293797588
24	22161	28	4.0903239356913
24	24212	29	2.2242819218415
24	26435	30	0.973
24	28795	31	3.2424195025943
24	31351	32	1.5352338864215
24	34117	33	0.973
24	37035	34	5.2341274800204
24	40134	35	2.0084925353511
24	43510	36	0.973
24	47052	37	0.973
24	50808	38	3.5041514626807
24	54664	39	0.973
24	58746	40	0.973
24	63061	41	6.250852818672
24	67603	42	7.2185240609392
24	72381	43	8.5941720346011
24	77440	44	10.115733883963
24	82764	45	11.83103587253
24	88271	46	8.7135430283133
24	94050	47	0.973
24	100076	48	0.973
24	106462	49	0.973
24	113190	50	1.2642133615665
24	120303	51	0.973
24	127628	52	6.12942268304
24	135255	53	8.8903656360155
24	143255	54	3.5658267607443
24	151410	55	6.7497369716102
24	159940	56	10.734527375879
24	168854	57	9.3445942263033
24	178094	58	12.10413515678
24	187672	59	5.2816772622065
24	197529	60	2.947053533972
24	207639	61	0.973
24	217951	62	0.973
24	228641	63	0.973
24	239873	64	0.973
24	251533	65	0.973
24	263035	66	0.973
24	275125	67	0.973
24	287703	68	2.7223461280144
24	300306	69	2.7536436013296
24	312488	70	3.77152677933
24	324916	71	2.3439620690017
25	325	6	1.4406950977165
25	508	7	3.4197304525645
25	733	8	5.2812725196825
25	1020	9	3.7756784905121
[...]
264	275125	67	1.9506770169624
264	287703	68	3.9996225853134
264	300306	69	3.2369660187243
264	312488	70	3.9581841651465
264	324916	71	4.9636657399861
265	151410	55	1.9015372624155
265	159940	56	4.0462678254815
265	168854	57	5.8495410420233
265	178094	58	7.9239425523905
265	187672	59	10.371159215318
265	197529	60	12.089681979502
265	207639	61	13.357355934042
265	217951	62	13.478494665944
265	228641	63	13.141805948536
265	239873	64	12.944275030666
265	251533	65	13.74505512422
265	263035	66	13.810706491591
265	275125	67	13.592485395875
265	287703	68	13.009842106849
265	300306	69	13.017549750521
265	312488	70	12.618400137019
265	324916	71	13.603313211314
266	159940	56	4681.4370290169
266	168854	57	4681.4370290169
266	178094	58	4680.1170123859
266	187672	59	4676.6405332761
266	197529	60	4671.9076586507
266	207639	61	4664.8988400989
266	217951	62	4655.9583351056
266	228641	63	4649.0204806931
266	239873	64	4645.3600777538
266	251533	65	4643.521283595
266	263035	66	4646.3592849998
266	275125	67	4651.0673857757
266	287703	68	4657.8285717535
266	300306	69	4666.2950920644
266	312488	70	4677.0409234729
266	324916	71	4685.4581096803
267	159940	56	5421.3934084019
267	168854	57	5421.3934084019
267	178094	58	5422.0153362759
267	187672	59	5423.6532847768
267	197529	60	5425.8831859649
267	207639	61	5429.1854016484
267	217951	62	5433.3977343817
267	228641	63	5436.6665152013
267	239873	64	5438.3911196985
267	251533	65	5440.5278800203
267	263035	66	5441.461016715
267	275125	67	5439.2421918161
267	287703	68	5436.0557927758
267	300306	69	5432.0657069711
267	312488	70	5427.0014317094
267	324916	71	5423.0345959884
268	159940	56	2.144730563066
268	168854	57	1.8032732165419
268	178094	58	2.0744015103672
268	187672	59	2.4472166629275
268	197529	60	1.7185227641836
268	207639	61	1.2676739545399
268	217951	62	0.12113873190246
268	228641	63	-0.33668871740811
268	239873	64	-0.19753091786988
268	251533	65	0.80078009355348
268	263035	66	0.065651367371901
268	275125	67	-0.21822109571658
268	287703	68	-0.58264328902587
268	300306	69	0.0077076436718926
268	312488	70	-0.3991496135015
268	324916	71	0.98491307429504
269	159940	56	3.4027469300749
269	168854	57	3.9528171955257
269	178094	58	5.4996354024863
269	187672	59	7.8300504354225
269	197529	60	6.863553657142
269	207639	61	6.0553148119351
269	217951	62	2.3799018324267
269	228641	63	0.973
269	239873	64	1.3185778774156
269	251533	65	4.6655821957377
269	263035	66	2.2380850492413
269	275125	67	1.2828452630799
269	287703	68	0.973
269	300306	69	1.9659267182147
269	312488	70	0.973
269	324916	71	5.2277062407673
270	159940	56	1.846414842899
270	168854	57	3.1765724967467
270	178094	58	4.6126238486264
270	187672	59	5.9439748174278
270	197529	60	8.3558763276553
270	207639	61	6.711204521426
270	217951	62	7.9211951654824
270	228641	63	7.844697607886
270	239873	64	9.533491118853
270	251533	65	11.105890142238
270	263035	66	12.495798856807
270	275125	67	13.277105484563
270	287703	68	13.591941076433
270	300306	69	12.867081956575
270	312488	70	13.746321013928
270	324916	71	9.2463210139284
271	168854	57	5331.1548188051
271	178094	58	5331.1548188051
271	187672	59	5329.7050440529
271	197529	60	5325.7995972115
271	207639	61	5319.4989369992
271	217951	62	5315.9934196685
271	228641	63	5314.7236057623
271	239873	64	5317.3724951134
271	251533	65	5321.9976574233
271	263035	66	5328.1383339915
271	275125	67	5335.3772309428
271	287703	68	5340.259643899
271	300306	69	5345.5737987559
271	312488	70	5348.196857112
271	324916	71	5351.2936121809
272	168854	57	5837.5088442703
272	178094	58	5837.5088442703
272	187672	59	5837.104410155
272	197529	60	5836.0149333684
272	207639	61	5834.2572796812
272	217951	62	5833.5202636125
272	228641	63	5835.5349258307
272	239873	64	5836.9851867374
272	251533	65	5838.2784451362
272	263035	66	5839.9954619702
272	275125	67	5841.9916249957
272	287703	68	5842.0573047448
272	300306	69	5837.3307494547
272	312488	70	5830.7143847117
272	324916	71	5822.0462478776
273	168854	57	1.3301576538477
273	178094	58	1.4360513518797
273	187672	59	1.3313509688014
273	197529	60	2.4119015102275
273	207639	61	-1.6446718062293
273	217951	62	1.2099906440563
273	228641	63	-0.076497557596304
273	239873	64	1.6887935109669
273	251533	65	1.5723990233848
273	263035	66	1.3899087145692
273	275125	67	0.78130662775599
273	287703	68	0.31483559187036
273	300306	69	-0.72485911985859
273	312488	70	0.8792390573537
273	324916	71	-4.5
274	168854	57	2.2845064044213
274	178094	58	2.9379544933431
274	187672	59	3.3232949358539
274	197529	60	6.4239882290795
274	207639	61	0.973
274	217951	62	3.8479142851125
274	228641	63	1.3884006180103
274	239873	64	5.5300631793819
274	251533	65	5.9808462781151
274	263035	66	6.0787357316698
274	275125	67	4.4667123331254
274	287703	68	3.0289310583616
274	300306	69	0.973
274	312488	70	4.9258776767112
274	324916	71	0.973
275	168854	57	1.45938156622
275	178094	58	3.8435193988495
275	187672	59	5.2325628489256
275	197529	60	7.7487967613386
275	207639	61	9.8844271149719
275	217951	62	7.6703403583239
275	228641	63	4.0468615689757
275	239873	64	3.0317341499729
275	251533	65	3.637411686941
275	263035	66	5.2039275689516
275	275125	67	7.4732304561185
275	287703	68	9.3581595968921
275	300306	69	11.877513031219
275	312488	70	9.3036299438964
275	324916	71	4.821828017447
276	178094	58	4051.8052544605
276	187672	59	4051.8052544605
276	197529	60	4054.0946065947
276	207639	61	4058.0265634828
276	217951	62	4064.3035223334
276	228641	63	4071.9228990263
276	239873	64	4081.0162509789
276	251533	65	4091.5717263629
276	263035	66	4104.7733955738
276	275125	67	4118.6483908583
276	287703	68	4134.0091892007
276	300306	69	4151.7369271834
276	312488	70	4171.5577943936
276	324916	71	4192.9088059795
277	178094	58	5153.537923602
277	187672	59	5153.537923602
277	197529	60	5154.5358424932
277	207639	61	5156.249765834
277	217951	62	5158.9858655903
277	228641	63	5162.3071195939
277	239873	64	5166.2708731652
277	251533	65	5170.8719601428
277	263035	66	5173.1385652184
277	275125	67	5179.1866168499
277	287703	68	5185.8823237362
277	300306	69	5193.6097695789
277	312488	70	5202.2496015794
277	324916	71	5211.5564170275
278	178094	58	2.3841378326295
278	187672	59	1.3890434500761
278	197529	60	2.516233912413
278	207639	61	2.1356303536333
278	217951	62	-2.214086756648
278	228641	63	-3.6234787893482
278	239873	64	-1.0151274190028
278	251533	65	0.60567753696814
278	263035	66	1.5665158820106
278	275125	67	2.2693028871669
278	287703	68	1.8849291407736
278	300306	69	2.5193534343271
278	312488	70	-2.5738830873227
278	324916	71	-4.4818019264494
279	178094	58	3.5090552323284
279	187672	59	3.1273035650329
279	197529	60	6.2257490866614
279	207639	61	6.7634228712889
279	217951	62	0.973
279	228641	63	0.973
279	239873	64	0.973
279	251533	65	1.8208612921662
279	263035	66	3.3386966097666
279	275125	67	5.5961898077916
279	287703	68	5.8882577357073
279	300306	69	9.0493639203811
279	312488	70	0.973
279	324916	71	0.973
280	178094	58	1.5042886402225
280	187672	59	4.052297992981
280	197529	60	6.5375752812019
280	207639	61	3.6433011470595
280	217951	62	3.0176664132392
280	228641	63	3.1476183756487
280	239873	64	4.8015157278627
280	251533	65	6.374815227394
280	263035	66	7.5092556517525
280	275125	67	4.9559703129511
280	287703	68	7.4476920350622
280	300306	69	7.1310357741732
280	312488	70	9.2069444424659
280	324916	71	11.253141336394
281	187672	59	5044.0968706697
281	197529	60	5044.0968706697
281	207639	61	5042.4930330606
281	217951	62	5039.2777767381
281	228641	63	5034.5241965469
281	239873	64	5027.732806083
281	251533	65	5018.9415001123
281	263035	66	5010.6757356532
281	275125	67	5005.2377637153
281	287703	68	5002.855168867
281	300306	69	5004.6558378502
281	312488	70	5009.7835681086
281	324916	71	5016.8593234189
282	187672	59	5370.3502655889
282	197529	60	5370.3502655889
282	207639	61	5369.2806695151
282	217951	62	5367.1364215443
282	228641	63	5363.9662684813
282	239873	64	5359.4371038485
282	251533	65	5353.5741995891
282	263035	66	5348.0617779061
282	275125	67	5344.4352053646
282	287703	68	5345.0718155307
282	300306	69	5347.894198594
282	312488	70	5351.3138715839
282	324916	71	5356.0326785604
283	187672	59	2.5480093527585
283	197529	60	2.4852772882208
283	207639	61	-2.8942741341423
283	217951	62	-0.62563473382033
283	228641	63	0.12995196240954
283	239873	64	1.653897352214
283	251533	65	1.5732994995313
283	263035	66	1.1344404243585
283	275125	67	-2.5532853388013
283	287703	68	2.4917217221111
283	300306	69	-0.31665626088903
283	312488	70	2.0759086682927
283	324916	71	2.0461968939286
284	187672	59	3.8000257056132
284	197529	60	5.3668773549061
284	207639	61	0.973
284	217951	62	0.973
284	228641	63	1.3633003924612
284	239873	64	3.265683775025
284	251533	65	3.8585608530913
284	263035	66	3.5643948600716
284	275125	67	0.973
284	287703	68	5.9798150737616
284	300306	69	0.973
284	312488	70	6.2324193050764
284	324916	71	7.333793825766
285	187672	59	2.4973391251173
285	197529	60	4.2891740542836
285	207639	61	6.8472187788226
285	217951	62	8.311594900745
285	228641	63	9.9194803939201
285	239873	64	11.514437323762
285	251533	65	13.004749471601
285	263035	66	15.135534664127
285	275125	67	16.756322507653
285	287703	68	19.338297941838
285	300306	69	21.621587364911
285	312488	70	23.29074492252
285	324916	71	25.531100272853
286	197529	60	2485.9929831481
286	207639	61	2485.9929831481
286	217951	62	2486.2398986962
286	228641	63	2486.7345689559
286	239873	64	2487.4842091381
286	251533	65	2488.4320930635
286	263035	66	2489.6092540452
286	275125	67	2490.9696645432
286	287703	68	2492.3693158141
286	300306	69	2493.3711952236
286	312488	70	2493.9116189143
286	324916	71	2495.8181104371
287	197529	60	5057.7774291861
287	207639	61	5057.7774291861
287	217951	62	5055.3825210371
287	228641	63	5050.5845654419
287	239873	64	5043.3135798983
287	251533	65	5034.1197686775
287	263035	66	5022.7021303447
287	275125	67	5009.5070998504
287	287703	68	4995.9314612998
287	300306	69	4986.2139316423
287	312488	70	4980.9721997617
287	324916	71	4975.4735811015
288	197529	60	1.7918349291664
288	207639	61	2.5580447245389
288	217951	62	1.4643761219224
288	228641	63	1.6078854931751
288	239873	64	1.594956929842
288	251533	65	1.490312147839
288	263035	66	2.1307851925259
288	275125	67	1.6207878435263
288	287703	68	2.581975434185
288	300306	69	2.2832894230727
288	312488	70	1.6691575576086
288	324916	71	2.2403553503333
289	197529	60	3.1764027335635
289	207639	61	5.6911995623648
289	217951	62	4.4972776262136
289	228641	63	5.5224836992428
289	239873	64	6.2324556134467
289	251533	65	6.6113818460674
289	263035	66	9.9328329980727
289	275125	67	8.8981290752626
289	287703	68	14.744331361707
289	300306	69	14.984556059009
289	312488	70	12.769782624148
289	324916	71	17.663896127944
290	197529	60	1.9277215399779
290	207639	61	3.864555135672
290	217951	62	5.7135328877019
290	228641	63	8.1628648740705
290	239873	64	10.566649508104
290	251533	65	9.9349785171635
290	263035	66	6.5361328219483
290	275125	67	2.7780098447576
290	287703	68	3.6491365198046
290	300306	69	6.1632399775088
290	312488	70	8.5046552376589
290	324916	71	9.9510832503904
291	207639	61	2418.2153805561
291	217951	62	2418.2153805561
291	228641	63	2417.1800063256
291	239873	64	2415.0018217085
291	251533	65	2411.6845189361
291	263035	66	2407.4949805881
291	275125	67	2402.0842484993
291	287703	68	2395.4548987287
291	300306	69	2388.5818170367
291	312488	70	2381.3891811396
291	324916	71	2374.701985282
292	207639	61	4455.3838219643
292	217951	62	4455.3838219643
292	228641	63	4457.0390544035
292	239873	64	4460.5212753537
292	251533	65	4465.8245821172
292	263035	66	4472.5223147577
292	275125	67	4481.1723458376
292	287703	68	4491.7705570617
292	300306	69	4502.7584177198
292	312488	70	4514.2571434069
292	324916	71	4524.9478320338
293	207639	61	1.936833595694
293	217951	62	1.8489777520299
293	228641	63	2.4493319863686
293	239873	64	2.4037846340332
293	251533	65	-0.63167099094018
293	263035	66	-3.3988456952153
293	275125	67	-3.7581229771907
293	287703	68	0.87112667504698
293	300306	69	2.5141034577042
293	312488	70	2.3414152601501
293	324916	71	1.4464280127315
294	207639	61	3.1056429602245
294	217951	62	3.9488219323295
294	228641	63	6.3724719030055
294	239873	64	7.8501125397153
294	251533	65	0.973
294	263035	66	0.973
294	275125	67	0.973
294	287703	68	2.0566285770666
294	300306	69	5.1632424062027
294	312488	70	6.3761060347373
294	324916	71	5.1499097567463
295	207639	61	2.4078582651448
295	217951	62	4.8238998395624
295	228641	63	7.3103023364441
295	239873	64	9.2435254126787
295	251533	65	11.479377545067
295	263035	66	13.266380695286
295	275125	67	13.649046834032
295	287703	68	9.770075780405
295	300306	69	5.270075780405
295	312488	70	5.9416442727344
295	324916	71	6.6160969534563
296	217951	62	5003.1854414125
296	228641	63	5003.1854414125
296	239873	64	5001.9759474029
296	251533	65	4999.8739014003
296	263035	66	4996.4136874362
296	275125	67	4991.7987146581
296	287703	68	4986.3071622397
296	300306	69	4979.4899617136
296	312488	70	4971.3848251179
296	324916	71	4964.1377204219
297	217951	62	4288.32929374
297	228641	63	4288.32929374
297	239873	64	4289.6640739817
297	251533	65	4291.9838618013
297	263035	66	4295.8025043035
297	275125	67	4300.8955220706
297	287703	68	4306.9559205562
297	300306	69	4314.4792852802
297	312488	70	4323.4239977783
297	324916	71	4331.4217985783
298	217951	62	2.4160415744176
298	228641	63	2.4864024968818
298	239873	64	1.9332230762346
298	251533	65	2.2358521323884
298	263035	66	1.7870031502191
298	275125	67	0.38266613874585
298	287703	68	-3.878971053627
298	300306	69	-4.5
298	312488	70	0.67156849232937
298	324916	71	0.67445268072188
299	217951	62	4.1618676181264
299	228641	63	5.879239615238
299	239873	64	5.9354887866154
299	251533	65	7.9890593900852
299	263035	66	7.6790626760458
299	275125	67	3.2620779660264
299	287703	68	0.973
299	300306	69	0.973
299	312488	70	2.3776454733976
299	324916	71	2.5313147560364
300	217951	62	1.9523665658664
300	228641	63	4.1073214837117
300	239873	64	6.2553140988108
300	251533	65	7.9000561883673
300	263035	66	10.202815673547
300	275125	67	12.500717580179
300	287703	68	12.960313773095
300	300306	69	13.56288521775
300	312488	70	12.609795788894
300	324916	71	13.065816997187
301	228641	63	4687.9297384481
301	239873	64	4687.9297384481
301	251533	65	4689.7181547737
301	263035	66	4693.2098625801
301	275125	67	4698.1826006201
301	287703	68	4702.5770779589
301	300306	69	4704.7599335258
301	312488	70	4702.7429400591
301	324916	71	4699.725815136
302	228641	63	5823.5611769834
302	239873	64	5823.5611769834
302	251533	65	5822.6077672921
302	263035	66	5820.7463281996
302	275125	67	5818.095347792
302	287703	68	5815.752639764
302	300306	69	5811.3566643051
302	312488	70	5806.7068343161
302	324916	71	5800.9127228676
303	228641	63	2.1549549178453
303	239873	64	2.1479926150991
303	251533	65	1.6447420895565
303	263035	66	2.3027594851796
303	275125	67	2.2979019066319
303	287703	68	0.45959619291592
303	300306	69	0.60257144465577
303	312488	70	-0.95308942885604
303	324916	71	0.45602120829281
304	228641	63	3.4476515264108
304	239873	64	4.6725321730666
304	251533	65	4.6680928094011
304	263035	66	7.3625042089803
304	275125	67	8.8163200765231
304	287703	68	3.3718279760351
304	300306	69	3.9643496730568
304	312488	70	0.973
304	324916	71	3.3822974620808
305	228641	63	1.8012305211276
305	239873	64	3.1304573536618
305	251533	65	5.1530995210866
305	263035	66	6.8728160336614
305	275125	67	8.1782561513362
305	287703	68	10.152468353231
305	300306	69	12.070518165221
305	312488	70	10.792700140944
305	324916	71	7.7465150567559
306	239873	64	4558.4522071084
306	251533	65	4558.4522071084
306	263035	66	4560.1785624472
306	275125	67	4563.1879468075
306	287703	68	4567.7495007391
306	300306	69	4574.5951190795
306	312488	70	4583.5931559521
306	324916	71	4594.651068126
307	239873	64	5115.7353883282
307	251533	65	5115.7353883282
307	263035	66	5114.8074529837
307	275125	67	5113.1898751593
307	287703	68	5110.7379887927
307	300306	69	5107.0583922055
307	312488	70	5102.2218465317
307	324916	71	5096.2780947953
308	239873	64	1.3292268325342
308	251533	65	2.0226421674248
308	263035	66	1.7197165125748
308	275125	67	1.3054401176749
308	287703	68	1.9742122018943
308	300306	69	1.9180498119909
308	312488	70	-1.2778180242777
308	324916	71	-3.0461850841879
309	239873	64	2.2666694250212
309	251533	65	3.8831396378604
309	263035	66	4.3199848202637
309	275125	67	4.1280196242318
309	287703	68	6.5268177457922
309	300306	69	7.4343403656879
309	312488	70	0.973
309	324916	71	0.973
310	239873	64	2.026989649632
310	251533	65	3.9574988675769
310	263035	66	5.6360973634291
310	275125	67	4.9806971419188
310	287703	68	5.5557720803656
310	300306	69	5.0941764801741
310	312488	70	6.5300096607301
310	324916	71	8.8940904412186
311	251533	65	4923.7670544919
311	263035	66	4923.7670544919
311	275125	67	4921.9282199495
311	287703	68	4918.8364996371
311	300306	69	4914.4718838412
311	312488	70	4908.2667286335
311	324916	71	4902.259255629
312	251533	65	4495.0176583211
312	263035	66	4495.0176583211
312	275125	67	4496.7690393596
312	287703	68	4499.7458362515
312	300306	69	4503.9482133822
312	312488	70	4509.9544146167
312	324916	71	4515.7972993198
313	251533	65	1.9305092179449
313	263035	66	1.6785984958522
313	275125	67	-0.65540022151032
313	287703	68	0.57507493844675
313	300306	69	-0.4615956001915
313	312488	70	1.4358331805561
313	324916	71	2.3640807804884
314	251533	65	3.1478726496534
314	263035	66	3.6784637333269
314	275125	67	0.973
314	287703	68	2.1638437514965
314	300306	69	0.973
314	312488	70	3.7103473187478
314	324916	71	6.671395462618
315	251533	65	1.9599301669281
315	263035	66	3.4165522352792
315	275125	67	5.1787294063251
315	287703	68	7.7718263413524
315	300306	69	10.21546579292
315	312488	70	12.55404097063
315	324916	71	14.113708693488
316	263035	66	5393.0575313059
316	275125	67	5393.0575313059
316	287703	68	5394.946999027
316	300306	69	5399.1528791258
316	312488	70	5402.9694495894
316	324916	71	5405.4392580989
317	263035	66	5627.1924329159
317	275125	67	5627.1924329159
317	287703	68	5627.7159218084
317	300306	69	5628.8811872903
317	312488	70	5629.938592094
317	324916	71	5629.9390758069
318	263035	66	1.4566220683511
318	275125	67	1.7621771710459
318	287703	68	2.5930969350273
318	300306	69	2.443639451568
318	312488	70	2.3385751777096
318	324916	71	1.5596677228576
319	263035	66	2.4778653437388
319	275125	67	3.5719795053058
319	287703	68	6.385175037613
319	300306	69	7.7173364524892
319	312488	70	8.9737997136236
319	324916	71	7.3556194852328
320	263035	66	2.539170677471
320	275125	67	4.2914087019861
320	287703	68	6.0582291781669
320	300306	69	8.6360505458899
320	312488	70	8.3813427376188
320	324916	71	7.0336580165802
321	275125	67	5413.960059761
321	287703	68	5413.960059761
321	300306	69	5413.4086627511
321	312488	70	5412.4917127394
321	324916	71	5414.4046606141
322	275125	67	5618.8160159363
322	287703	68	5618.8160159363
322	300306	69	5620.4966317425
322	312488	70	5623.7655915584
322	324916	71	5625.3405357941
323	275125	67	1.7522380245151
323	287703	68	1.7668204761809
323	300306	69	2.5778213677229
323	312488	70	-0.25470780827105
323	324916	71	-1.3476847210387
324	275125	67	3.1365346383134
324	287703	68	4.0024060277816
324	300306	69	6.9512923968791
324	312488	70	0.973
324	324916	71	0.973
325	275125	67	1.9595778406365
325	287703	68	4.3619424401084
325	300306	69	3.9581871784087
325	312488	70	2.579120888724
325	324916	71	2.8822390092071
326	287703	68	2.4023645994719
326	300306	69	-0.40375526169967
326	312488	70	-1.3790662896847
326	324916	71	0.30311812048312
327	287703	68	3.8535201150084
327	300306	69	0.973
327	312488	70	0.973
327	324916	71	1.4618028834101
328	287703	68	1.7686983957188
328	300306	69	3.4373735717963
328	312488	70	3.0670986195095
328	324916	71	3.1450746409828
329	300306	69	1.6686751760775
329	312488	70	-0.37027495228685
329	324916	71	0.077976021473296
330	300306	69	2.6619130632497
330	312488	70	0.973
330	324916	71	1.3236951986519
331	312488	70	2228.73
331	324916	71	2228.73
332	312488	70	4639.0658010118
332	324916	71	4639.0658010118
333	324916	71	4102.3187493304
334	324916	71	4770.825653866
335	324916	71	1.9678462895099

